POPI2D
 OpenBabel02161614153D

144144  0  0  1  0  0  0  0  0999 V2000
   34.3000   64.8000   62.6100 C   0  0  2  0  0  0  0  0  0  0  0  0
   33.6900   65.6300   62.1200 H   0  0  0  0  0  0  0  0  0  0  0  0
   35.6500   64.9300   62.1700 O   0  0  0  0  0  0  0  0  0  0  0  0
   35.5000   65.3300   61.3000 H   0  0  0  0  0  0  0  0  0  0  0  0
   34.0600   64.9000   64.1800 C   0  0  2  0  0  0  0  0  0  0  0  0
   33.0400   65.2900   64.4200 H   0  0  0  0  0  0  0  0  0  0  0  0
   35.3000   65.4600   64.9500 O   0  0  0  0  0  0  0  0  0  0  0  0
   36.7400   64.6800   65.8100 P   0  0  0  0  0  0  0  0  0  0  0  0
   36.8300   63.1500   65.6600 O   0  0  0  0  0  0  0  0  0  0  0  0
   37.9200   65.2200   65.0100 O   0  0  0  0  0  0  0  0  0  0  0  0
   36.7200   65.0800   67.2900 O   0  0  0  0  0  0  0  0  0  0  0  0
   34.3500   63.5900   64.6900 C   0  0  1  0  0  0  0  0  0  0  0  0
   35.3100   63.3400   64.2500 H   0  0  0  0  0  0  0  0  0  0  0  0
   34.0500   63.4900   66.0900 O   0  0  0  0  0  0  0  0  0  0  0  0
   33.0800   63.8400   67.2900 P   0  0  2  0  0  0  0  0  0  0  0  0
   33.5700   65.0900   68.1800 O   0  0  0  0  0  0  0  0  0  0  0  0
   34.0700   65.6900   67.6200 H   0  0  0  0  0  0  0  0  0  0  0  0
   33.1300   62.6500   68.2600 O   0  0  0  0  0  0  0  0  0  0  0  0
   31.7000   64.2700   66.8200 O   0  0  0  0  0  0  0  0  0  0  0  0
   33.7400   62.3700   64.1400 C   0  0  2  0  0  0  0  0  0  0  0  0
   32.6900   62.3000   64.2500 H   0  0  0  0  0  0  0  0  0  0  0  0
   34.3200   61.2200   64.7900 O   0  0  0  0  0  0  0  0  0  0  0  0
   34.1700   60.4900   64.2100 H   0  0  0  0  0  0  0  0  0  0  0  0
   34.1200   62.3400   62.6600 C   0  0  1  0  0  0  0  0  0  0  0  0
   35.2200   62.3500   62.5500 H   0  0  0  0  0  0  0  0  0  0  0  0
   33.7100   61.1200   62.0900 O   0  0  0  0  0  0  0  0  0  0  0  0
   33.7800   61.2300   61.1400 H   0  0  0  0  0  0  0  0  0  0  0  0
   33.5800   63.5700   61.9200 C   0  0  2  0  0  0  0  0  0  0  0  0
   32.4800   63.5200   62.0700 H   0  0  0  0  0  0  0  0  0  0  0  0
   32.9900   63.8200   59.2500 P   0  0  2  0  0  0  0  0  0  0  0  0
   32.6700   65.2500   59.4000 O   0  0  0  0  0  0  0  0  0  0  0  0
   31.8600   62.8600   59.2200 O   0  0  0  0  0  0  0  0  0  0  0  0
   33.9600   63.4100   60.5200 O   0  0  0  0  0  0  0  0  0  0  0  0
   33.9000   63.5600   58.0000 O   0  0  0  0  0  0  0  0  0  0  0  0
   35.2800   63.8500   57.8100 C   0  0  0  0  0  0  0  0  0  0  0  0
   35.6900   63.0600   57.1400 H   0  0  0  0  0  0  0  0  0  0  0  0
   35.8700   63.8200   58.7500 H   0  0  0  0  0  0  0  0  0  0  0  0
   35.5300   65.1900   57.0600 C   0  0  2  0  0  0  0  0  0  0  0  0
   35.2100   66.0100   57.7400 H   0  0  0  0  0  0  0  0  0  0  0  0
   34.7300   65.1500   55.8700 O   0  0  0  0  0  0  0  0  0  0  0  0
   34.2800   66.2900   55.4700 C   0  0  0  0  0  0  0  0  0  0  0  0
   34.4700   67.3800   55.9800 O   0  0  0  0  0  0  0  0  0  0  0  0
   33.4600   66.0100   54.2100 C   0  0  0  0  0  0  0  0  0  0  0  0
   32.4100   65.8100   54.4100 H   0  0  0  0  0  0  0  0  0  0  0  0
   33.9200   65.2300   53.5800 H   0  0  0  0  0  0  0  0  0  0  0  0
   37.0500   65.3900   56.7100 C   0  0  0  0  0  0  0  0  0  0  0  0
   37.2200   66.4100   56.3000 H   0  0  0  0  0  0  0  0  0  0  0  0
   37.6200   65.3700   57.6700 H   0  0  0  0  0  0  0  0  0  0  0  0
   37.5600   64.3400   55.8400 O   0  0  0  0  0  0  0  0  0  0  0  0
   37.4300   64.5900   54.5200 C   0  0  0  0  0  0  0  0  0  0  0  0
   36.9700   65.6000   54.0400 O   0  0  0  0  0  0  0  0  0  0  0  0
   37.9800   63.4300   53.6500 C   0  0  0  0  0  0  0  0  0  0  0  0
   38.0700   62.5100   54.2600 H   0  0  0  0  0  0  0  0  0  0  0  0
   39.0000   63.7300   53.3100 H   0  0  0  0  0  0  0  0  0  0  0  0
   33.6200   67.2100   53.3900 C   0  0  0  0  0  0  0  0  0  0  0  0
   34.6500   67.2200   53.0900 H   0  0  0  0  0  0  0  0  0  0  0  0
   33.2200   68.1400   53.8800 H   0  0  0  0  0  0  0  0  0  0  0  0
   33.2600   67.1600   51.9400 C   0  0  0  0  0  0  0  0  0  0  0  0
   33.4600   68.0900   51.4400 H   0  0  0  0  0  0  0  0  0  0  0  0
   32.3900   67.4200   52.3700 H   0  0  0  0  0  0  0  0  0  0  0  0
   33.3200   65.9100   51.0400 C   0  0  0  0  0  0  0  0  0  0  0  0
   33.0300   65.0500   51.6300 H   0  0  0  0  0  0  0  0  0  0  0  0
   34.3600   66.1200   50.7800 H   0  0  0  0  0  0  0  0  0  0  0  0
   32.5700   65.7000   49.6900 C   0  0  0  0  0  0  0  0  0  0  0  0
   33.0400   66.5400   49.1000 H   0  0  0  0  0  0  0  0  0  0  0  0
   31.4500   65.6900   49.8100 H   0  0  0  0  0  0  0  0  0  0  0  0
   32.8600   64.7700   48.5900 C   0  0  0  0  0  0  0  0  0  0  0  0
   32.4300   63.8500   49.0400 H   0  0  0  0  0  0  0  0  0  0  0  0
   33.9700   64.8400   48.5400 H   0  0  0  0  0  0  0  0  0  0  0  0
   32.2000   65.2000   47.2600 C   0  0  0  0  0  0  0  0  0  0  0  0
   32.5100   66.2400   46.9800 H   0  0  0  0  0  0  0  0  0  0  0  0
   31.0900   65.2600   47.3900 H   0  0  0  0  0  0  0  0  0  0  0  0
   32.5400   64.1800   46.1900 C   0  0  0  0  0  0  0  0  0  0  0  0
   31.8100   63.4200   46.0000 H   0  0  0  0  0  0  0  0  0  0  0  0
   33.6500   64.0300   45.4700 C   0  0  0  0  0  0  0  0  0  0  0  0
   33.7900   63.4000   44.6000 H   0  0  0  0  0  0  0  0  0  0  0  0
   34.8100   64.8100   45.5300 C   0  0  0  0  0  0  0  0  0  0  0  0
   34.3300   65.7000   45.9300 H   0  0  0  0  0  0  0  0  0  0  0  0
   35.0700   65.0000   44.4600 H   0  0  0  0  0  0  0  0  0  0  0  0
   36.2000   64.4000   45.9500 C   0  0  0  0  0  0  0  0  0  0  0  0
   36.2600   64.1700   47.0200 H   0  0  0  0  0  0  0  0  0  0  0  0
   36.9500   65.1700   45.7000 H   0  0  0  0  0  0  0  0  0  0  0  0
   36.8200   63.5100   44.9300 C   0  0  0  0  0  0  0  0  0  0  0  0
   36.0200   62.9100   44.4800 H   0  0  0  0  0  0  0  0  0  0  0  0
   37.3500   62.9000   45.6400 H   0  0  0  0  0  0  0  0  0  0  0  0
   37.7900   64.2000   43.9300 C   0  0  0  0  0  0  0  0  0  0  0  0
   38.6400   63.6000   43.5800 H   0  0  0  0  0  0  0  0  0  0  0  0
   38.3800   65.0100   44.4000 H   0  0  0  0  0  0  0  0  0  0  0  0
   37.1800   64.5400   42.5900 C   0  0  0  0  0  0  0  0  0  0  0  0
   36.5800   65.4400   42.6900 H   0  0  0  0  0  0  0  0  0  0  0  0
   36.5400   63.7000   42.2200 H   0  0  0  0  0  0  0  0  0  0  0  0
   38.1900   64.9100   41.5500 C   0  0  0  0  0  0  0  0  0  0  0  0
   39.2400   65.0800   41.9600 H   0  0  0  0  0  0  0  0  0  0  0  0
   37.9200   65.6900   40.8300 H   0  0  0  0  0  0  0  0  0  0  0  0
   38.0800   63.8600   40.5300 C   0  0  0  0  0  0  0  0  0  0  0  0
   37.3800   63.1100   40.1800 H   0  0  0  0  0  0  0  0  0  0  0  0
   38.5900   63.3700   41.3300 H   0  0  0  0  0  0  0  0  0  0  0  0
   38.9800   64.0600   39.5500 C   0  0  0  0  0  0  0  0  0  0  0  0
   39.1500   63.1900   39.0900 H   0  0  0  0  0  0  0  0  0  0  0  0
   39.2000   64.6500   38.6700 H   0  0  0  0  0  0  0  0  0  0  0  0
   39.7500   63.9700   40.3100 H   0  0  0  0  0  0  0  0  0  0  0  0
   37.2100   63.2200   52.3400 C   0  0  0  0  0  0  0  0  0  0  0  0
   37.9300   62.9200   51.5400 H   0  0  0  0  0  0  0  0  0  0  0  0
   36.7500   64.1700   52.0100 H   0  0  0  0  0  0  0  0  0  0  0  0
   36.1700   62.1000   52.4300 C   0  0  0  0  0  0  0  0  0  0  0  0
   35.2400   62.5100   52.8700 H   0  0  0  0  0  0  0  0  0  0  0  0
   36.5300   61.3100   53.1200 H   0  0  0  0  0  0  0  0  0  0  0  0
   35.9100   61.4100   51.0800 C   0  0  0  0  0  0  0  0  0  0  0  0
   35.1300   60.6400   51.2600 H   0  0  0  0  0  0  0  0  0  0  0  0
   36.8300   60.8500   50.7800 H   0  0  0  0  0  0  0  0  0  0  0  0
   35.4400   62.3000   49.9100 C   0  0  0  0  0  0  0  0  0  0  0  0
   36.3200   62.6700   49.3300 H   0  0  0  0  0  0  0  0  0  0  0  0
   34.9100   63.1900   50.3100 H   0  0  0  0  0  0  0  0  0  0  0  0
   34.5000   61.5400   48.9600 C   0  0  0  0  0  0  0  0  0  0  0  0
   34.1600   62.2000   48.1300 H   0  0  0  0  0  0  0  0  0  0  0  0
   33.5900   61.2400   49.5200 H   0  0  0  0  0  0  0  0  0  0  0  0
   35.1400   60.2700   48.3800 C   0  0  0  0  0  0  0  0  0  0  0  0
   35.3100   59.5600   49.2200 H   0  0  0  0  0  0  0  0  0  0  0  0
   36.1300   60.4800   47.9300 H   0  0  0  0  0  0  0  0  0  0  0  0
   34.1900   59.5700   47.3900 C   0  0  0  0  0  0  0  0  0  0  0  0
   33.1800   59.5700   47.8400 H   0  0  0  0  0  0  0  0  0  0  0  0
   34.5200   58.5100   47.2800 H   0  0  0  0  0  0  0  0  0  0  0  0
   34.0800   60.2100   46.0000 C   0  0  0  0  0  0  0  0  0  0  0  0
   35.0500   60.6600   45.6800 H   0  0  0  0  0  0  0  0  0  0  0  0
   33.3200   61.0200   46.0300 H   0  0  0  0  0  0  0  0  0  0  0  0
   33.7000   59.1700   44.9400 C   0  0  0  0  0  0  0  0  0  0  0  0
   34.2500   58.2300   45.1700 H   0  0  0  0  0  0  0  0  0  0  0  0
   34.0100   59.5000   43.9200 H   0  0  0  0  0  0  0  0  0  0  0  0
   32.2000   58.8700   44.9000 C   0  0  0  0  0  0  0  0  0  0  0  0
   31.7100   59.1000   45.8600 H   0  0  0  0  0  0  0  0  0  0  0  0
   32.0800   57.7700   44.7200 H   0  0  0  0  0  0  0  0  0  0  0  0
   31.5300   59.5800   43.7300 C   0  0  0  0  0  0  0  0  0  0  0  0
   30.5500   59.1200   43.6500 H   0  0  0  0  0  0  0  0  0  0  0  0
   32.0900   59.4100   42.7900 H   0  0  0  0  0  0  0  0  0  0  0  0
   31.2000   61.0600   43.9100 C   0  0  0  0  0  0  0  0  0  0  0  0
   32.1400   61.6500   43.9400 H   0  0  0  0  0  0  0  0  0  0  0  0
   30.6500   61.2000   44.8600 H   0  0  0  0  0  0  0  0  0  0  0  0
   30.3100   61.5800   42.7800 C   0  0  0  0  0  0  0  0  0  0  0  0
   29.8800   62.5600   43.0200 H   0  0  0  0  0  0  0  0  0  0  0  0
   29.4600   60.8500   42.6600 H   0  0  0  0  0  0  0  0  0  0  0  0
   31.0600   61.6700   41.4700 C   0  0  0  0  0  0  0  0  0  0  0  0
   32.1700   61.6100   41.5800 H   0  0  0  0  0  0  0  0  0  0  0  0
   30.7100   60.7700   40.9600 H   0  0  0  0  0  0  0  0  0  0  0  0
   30.8200   62.5700   40.8700 H   0  0  0  0  0  0  0  0  0  0  0  0
  1  2  1  6  0  0  0
  1  5  1  0  0  0  0
  3  1  1  0  0  0  0
  4  3  1  0  0  0  0
  5  6  1  1  0  0  0
  5 12  1  0  0  0  0
  5  7  1  0  0  0  0
  7  8  1  0  0  0  0
  8 11  1  0  0  0  0
  9  8  1  0  0  0  0
 10  8  2  0  0  0  0
 12 13  1  6  0  0  0
 12 14  1  0  0  0  0
 15 14  1  6  0  0  0
 15 16  1  0  0  0  0
 15 18  1  0  0  0  0
 17 16  1  0  0  0  0
 19 15  2  0  0  0  0
 20 21  1  1  0  0  0
 20 12  1  0  0  0  0
 20 22  1  0  0  0  0
 23 22  1  0  0  0  0
 24 25  1  6  0  0  0
 24 20  1  0  0  0  0
 26 24  1  0  0  0  0
 27 26  1  0  0  0  0
 28 29  1  1  0  0  0
 28  1  1  0  0  0  0
 28 24  1  0  0  0  0
 30 34  1  6  0  0  0
 30 31  1  0  0  0  0
 30 33  1  0  0  0  0
 32 30  2  0  0  0  0
 33 28  1  0  0  0  0
 35 34  1  0  0  0  0
 35 37  1  0  0  0  0
 36 35  1  0  0  0  0
 38 39  1  1  0  0  0
 38 35  1  0  0  0  0
 40 38  1  0  0  0  0
 41 40  1  0  0  0  0
 41 42  2  0  0  0  0
 43 44  1  0  0  0  0
 43 41  1  0  0  0  0
 45 43  1  0  0  0  0
 46 38  1  0  0  0  0
 46 48  1  0  0  0  0
 47 46  1  0  0  0  0
 49 46  1  0  0  0  0
 50 49  1  0  0  0  0
 51 50  2  0  0  0  0
 52 53  1  0  0  0  0
 52 50  1  0  0  0  0
 54 52  1  0  0  0  0
 55 57  1  0  0  0  0
 55 43  1  0  0  0  0
 56 55  1  0  0  0  0
 58 60  1  0  0  0  0
 58 55  1  0  0  0  0
 59 58  1  0  0  0  0
 61 62  1  0  0  0  0
 61 58  1  0  0  0  0
 63 61  1  0  0  0  0
 64 66  1  0  0  0  0
 64 61  1  0  0  0  0
 65 64  1  0  0  0  0
 67 68  1  0  0  0  0
 67 64  1  0  0  0  0
 69 67  1  0  0  0  0
 70 72  1  0  0  0  0
 70 67  1  0  0  0  0
 71 70  1  0  0  0  0
 73 70  1  0  0  0  0
 74 73  1  0  0  0  0
 75 77  1  0  0  0  0
 75 73  1  0  0  0  0
 76 75  1  0  0  0  0
 77 78  1  0  0  0  0
 77 80  1  0  0  0  0
 79 77  1  0  0  0  0
 80 81  1  0  0  0  0
 82 80  1  0  0  0  0
 83 85  1  0  0  0  0
 83 80  1  0  0  0  0
 84 83  1  0  0  0  0
 86 88  1  0  0  0  0
 86 83  1  0  0  0  0
 87 86  1  0  0  0  0
 89 90  1  0  0  0  0
 89 86  1  0  0  0  0
 91 89  1  0  0  0  0
 92 93  1  0  0  0  0
 92 89  1  0  0  0  0
 94 92  1  0  0  0  0
 95 97  1  0  0  0  0
 95 92  1  0  0  0  0
 96 95  1  0  0  0  0
 98101  1  0  0  0  0
 98 95  1  0  0  0  0
 99 98  1  0  0  0  0
100 98  1  0  0  0  0
102105  1  0  0  0  0
102 52  1  0  0  0  0
103102  1  0  0  0  0
104102  1  0  0  0  0
105106  1  0  0  0  0
105107  1  0  0  0  0
108109  1  0  0  0  0
108105  1  0  0  0  0
110108  1  0  0  0  0
111113  1  0  0  0  0
111108  1  0  0  0  0
112111  1  0  0  0  0
114116  1  0  0  0  0
114111  1  0  0  0  0
115114  1  0  0  0  0
117114  1  0  0  0  0
117118  1  0  0  0  0
119117  1  0  0  0  0
120121  1  0  0  0  0
120117  1  0  0  0  0
122120  1  0  0  0  0
123125  1  0  0  0  0
123120  1  0  0  0  0
124123  1  0  0  0  0
126127  1  0  0  0  0
126123  1  0  0  0  0
128126  1  0  0  0  0
129126  1  0  0  0  0
129130  1  0  0  0  0
131129  1  0  0  0  0
132135  1  0  0  0  0
132129  1  0  0  0  0
133132  1  0  0  0  0
134132  1  0  0  0  0
135136  1  0  0  0  0
135137  1  0  0  0  0
138139  1  0  0  0  0
138135  1  0  0  0  0
140138  1  0  0  0  0
141142  1  0  0  0  0
141138  1  0  0  0  0
143141  1  0  0  0  0
144141  1  0  0  0  0
M  END
