DEPC
 OpenBabel02161614153D

162161  0  0  1  0  0  0  0  0999 V2000
   24.4800   17.9300   63.4700 N   0  0  0  0  0  0  0  0  0  0  0  0
   24.2200   19.3900   63.1900 C   0  0  0  0  0  0  0  0  0  0  0  0
   23.2400   19.5400   62.8000 H   0  0  0  0  0  0  0  0  0  0  0  0
   24.3600   19.9600   64.1000 H   0  0  0  0  0  0  0  0  0  0  0  0
   24.9800   19.7600   62.4900 H   0  0  0  0  0  0  0  0  0  0  0  0
   24.3700   17.2000   62.1800 C   0  0  0  0  0  0  0  0  0  0  0  0
   24.4300   16.1400   62.3600 H   0  0  0  0  0  0  0  0  0  0  0  0
   23.4200   17.4100   61.7000 H   0  0  0  0  0  0  0  0  0  0  0  0
   25.2100   17.4900   61.5500 H   0  0  0  0  0  0  0  0  0  0  0  0
   23.4300   17.4400   64.4000 C   0  0  0  0  0  0  0  0  0  0  0  0
   23.3600   18.1400   65.2300 H   0  0  0  0  0  0  0  0  0  0  0  0
   22.4700   17.4000   63.9000 H   0  0  0  0  0  0  0  0  0  0  0  0
   23.6400   16.4500   64.7900 H   0  0  0  0  0  0  0  0  0  0  0  0
   25.8600   17.8100   64.1000 C   0  0  0  0  0  0  0  0  0  0  0  0
   26.2000   16.7900   64.0300 H   0  0  0  0  0  0  0  0  0  0  0  0
   25.8000   18.0300   65.1600 H   0  0  0  0  0  0  0  0  0  0  0  0
   26.9600   18.7100   63.4700 C   0  0  0  0  0  0  0  0  0  0  0  0
   27.9400   18.4800   63.9600 H   0  0  0  0  0  0  0  0  0  0  0  0
   26.7600   19.7800   63.6800 H   0  0  0  0  0  0  0  0  0  0  0  0
   28.3000   18.7400   61.2000 P   0  0  1  0  0  0  0  0  0  0  0  0
   29.4200   18.0800   61.8900 O   0  0  0  0  0  0  0  0  0  0  0  0
   28.0000   18.3100   59.8200 O   0  0  0  0  0  0  0  0  0  0  0  0
   27.0000   18.4600   62.0500 O   0  0  0  0  0  0  0  0  0  0  0  0
   28.4300   20.2900   61.3000 O   0  0  0  0  0  0  0  0  0  0  0  0
   27.4100   21.2600   61.1200 C   0  0  0  0  0  0  0  0  0  0  0  0
   27.7600   22.1900   61.6400 H   0  0  0  0  0  0  0  0  0  0  0  0
   26.4700   20.9500   61.6100 H   0  0  0  0  0  0  0  0  0  0  0  0
   27.1000   21.6300   59.6400 C   0  0  2  0  0  0  0  0  0  0  0  0
   26.4800   22.5400   59.7000 H   0  0  0  0  0  0  0  0  0  0  0  0
   26.4000   20.5900   58.9700 O   0  0  0  0  0  0  0  0  0  0  0  0
   25.9200   20.9200   57.7800 C   0  0  0  0  0  0  0  0  0  0  0  0
   25.6000   22.0600   57.4600 O   0  0  0  0  0  0  0  0  0  0  0  0
   25.6200   19.6400   57.0100 C   0  0  0  0  0  0  0  0  0  0  0  0
   24.5200   19.5300   57.0200 H   0  0  0  0  0  0  0  0  0  0  0  0
   26.1000   18.7800   57.5300 H   0  0  0  0  0  0  0  0  0  0  0  0
   28.3000   21.9500   58.7900 C   0  0  0  0  0  0  0  0  0  0  0  0
   28.8700   22.7400   59.1600 H   0  0  0  0  0  0  0  0  0  0  0  0
   28.0100   22.4000   57.8100 H   0  0  0  0  0  0  0  0  0  0  0  0
   29.2300   20.9000   58.7900 O   0  0  0  0  0  0  0  0  0  0  0  0
   29.6100   20.5800   57.6300 C   0  0  0  0  0  0  0  0  0  0  0  0
   29.1600   21.0300   56.5700 O   0  0  0  0  0  0  0  0  0  0  0  0
   30.7200   19.6100   57.8000 C   0  0  0  0  0  0  0  0  0  0  0  0
   30.3400   18.7200   58.3400 H   0  0  0  0  0  0  0  0  0  0  0  0
   31.5200   20.0600   58.4200 H   0  0  0  0  0  0  0  0  0  0  0  0
   26.1100   19.6200   55.5600 C   0  0  0  0  0  0  0  0  0  0  0  0
   26.0000   18.5800   55.1800 H   0  0  0  0  0  0  0  0  0  0  0  0
   27.2000   19.8600   55.5100 H   0  0  0  0  0  0  0  0  0  0  0  0
   25.3300   20.5500   54.6300 C   0  0  0  0  0  0  0  0  0  0  0  0
   25.9800   20.7000   53.7400 H   0  0  0  0  0  0  0  0  0  0  0  0
   25.1600   21.5600   55.0700 H   0  0  0  0  0  0  0  0  0  0  0  0
   23.9800   19.9600   54.1800 C   0  0  0  0  0  0  0  0  0  0  0  0
   23.2000   20.1100   54.9500 H   0  0  0  0  0  0  0  0  0  0  0  0
   24.1200   18.8500   54.0900 H   0  0  0  0  0  0  0  0  0  0  0  0
   23.4600   20.5000   52.8300 C   0  0  0  0  0  0  0  0  0  0  0  0
   23.1500   21.5600   52.9200 H   0  0  0  0  0  0  0  0  0  0  0  0
   22.5500   19.9200   52.5700 H   0  0  0  0  0  0  0  0  0  0  0  0
   24.4700   20.4400   51.6800 C   0  0  0  0  0  0  0  0  0  0  0  0
   25.2600   21.2100   51.8300 H   0  0  0  0  0  0  0  0  0  0  0  0
   23.9500   20.7000   50.7300 H   0  0  0  0  0  0  0  0  0  0  0  0
   25.1800   19.0900   51.4900 C   0  0  0  0  0  0  0  0  0  0  0  0
   25.8900   18.8900   52.3200 H   0  0  0  0  0  0  0  0  0  0  0  0
   25.7800   19.1500   50.5600 H   0  0  0  0  0  0  0  0  0  0  0  0
   24.2400   17.9000   51.3400 C   0  0  0  0  0  0  0  0  0  0  0  0
   23.3500   17.9500   52.0000 H   0  0  0  0  0  0  0  0  0  0  0  0
   24.7800   16.9600   51.6000 H   0  0  0  0  0  0  0  0  0  0  0  0
   23.8800   17.7700   49.8700 C   0  0  0  0  0  0  0  0  0  0  0  0
   24.7700   17.5500   49.2600 H   0  0  0  0  0  0  0  0  0  0  0  0
   23.4200   18.7200   49.4800 H   0  0  0  0  0  0  0  0  0  0  0  0
   22.9100   16.6500   49.6900 C   0  0  0  0  0  0  0  0  0  0  0  0
   22.0500   17.1100   50.2400 H   0  0  0  0  0  0  0  0  0  0  0  0
   23.1200   15.7100   50.2300 H   0  0  0  0  0  0  0  0  0  0  0  0
   22.7400   16.4100   48.1900 C   0  0  0  0  0  0  0  0  0  0  0  0
   22.7500   17.3700   47.6600 H   0  0  0  0  0  0  0  0  0  0  0  0
   21.7800   15.9600   47.9600 H   0  0  0  0  0  0  0  0  0  0  0  0
   23.2700   15.3100   47.4200 C   0  0  0  0  0  0  0  0  0  0  0  0
   22.6600   14.4500   47.5600 H   0  0  0  0  0  0  0  0  0  0  0  0
   24.1900   15.3400   46.5100 C   0  0  0  0  0  0  0  0  0  0  0  0
   24.5300   14.4100   46.0200 H   0  0  0  0  0  0  0  0  0  0  0  0
   24.8500   16.6200   46.2000 C   0  0  0  0  0  0  0  0  0  0  0  0
   24.3500   17.5400   46.5900 H   0  0  0  0  0  0  0  0  0  0  0  0
   24.9000   16.7400   45.1100 H   0  0  0  0  0  0  0  0  0  0  0  0
   26.1800   16.4300   46.9200 C   0  0  0  0  0  0  0  0  0  0  0  0
   26.6100   15.4200   46.6900 H   0  0  0  0  0  0  0  0  0  0  0  0
   26.0300   16.4700   48.0200 H   0  0  0  0  0  0  0  0  0  0  0  0
   27.2000   17.4600   46.4700 C   0  0  0  0  0  0  0  0  0  0  0  0
   28.1100   17.3300   47.0800 H   0  0  0  0  0  0  0  0  0  0  0  0
   26.7800   18.4700   46.6500 H   0  0  0  0  0  0  0  0  0  0  0  0
   27.5700   17.2500   45.0000 C   0  0  0  0  0  0  0  0  0  0  0  0
   26.6800   17.1100   44.3500 H   0  0  0  0  0  0  0  0  0  0  0  0
   28.1500   16.3000   44.9600 H   0  0  0  0  0  0  0  0  0  0  0  0
   28.3700   18.3800   44.3700 C   0  0  0  0  0  0  0  0  0  0  0  0
   29.2000   18.6600   45.0500 H   0  0  0  0  0  0  0  0  0  0  0  0
   27.7200   19.2800   44.2700 H   0  0  0  0  0  0  0  0  0  0  0  0
   28.9000   17.9300   42.9900 C   0  0  0  0  0  0  0  0  0  0  0  0
   28.1800   17.3300   42.4200 H   0  0  0  0  0  0  0  0  0  0  0  0
   29.8100   17.3200   43.2000 H   0  0  0  0  0  0  0  0  0  0  0  0
   29.3400   19.0700   42.0900 C   0  0  0  0  0  0  0  0  0  0  0  0
   29.6100   19.7700   42.8700 H   0  0  0  0  0  0  0  0  0  0  0  0
   28.6000   19.7600   41.6500 H   0  0  0  0  0  0  0  0  0  0  0  0
   30.4400   18.6400   41.0600 C   0  0  0  0  0  0  0  0  0  0  0  0
   30.1600   17.8900   40.3100 H   0  0  0  0  0  0  0  0  0  0  0  0
   30.7000   19.5400   40.4900 H   0  0  0  0  0  0  0  0  0  0  0  0
   31.3600   18.2000   41.4800 H   0  0  0  0  0  0  0  0  0  0  0  0
   31.2300   19.2700   56.4200 C   0  0  0  0  0  0  0  0  0  0  0  0
   32.2900   19.0600   56.5500 H   0  0  0  0  0  0  0  0  0  0  0  0
   31.1200   20.1100   55.6900 H   0  0  0  0  0  0  0  0  0  0  0  0
   30.6400   17.9900   55.9000 C   0  0  0  0  0  0  0  0  0  0  0  0
   29.5300   18.0600   55.9200 H   0  0  0  0  0  0  0  0  0  0  0  0
   30.9500   17.1700   56.5900 H   0  0  0  0  0  0  0  0  0  0  0  0
   31.1400   17.7300   54.4800 C   0  0  0  0  0  0  0  0  0  0  0  0
   32.2500   17.6700   54.4800 H   0  0  0  0  0  0  0  0  0  0  0  0
   30.8500   18.6100   53.8600 H   0  0  0  0  0  0  0  0  0  0  0  0
   30.5800   16.4500   53.8900 C   0  0  0  0  0  0  0  0  0  0  0  0
   30.6600   15.6500   54.6600 H   0  0  0  0  0  0  0  0  0  0  0  0
   31.2200   16.1600   53.0300 H   0  0  0  0  0  0  0  0  0  0  0  0
   29.1400   16.6100   53.3900 C   0  0  0  0  0  0  0  0  0  0  0  0
   28.4800   16.9200   54.2300 H   0  0  0  0  0  0  0  0  0  0  0  0
   28.7800   15.6100   53.0600 H   0  0  0  0  0  0  0  0  0  0  0  0
   28.9800   17.6200   52.2300 C   0  0  0  0  0  0  0  0  0  0  0  0
   29.3100   18.6400   52.5300 H   0  0  0  0  0  0  0  0  0  0  0  0
   27.8900   17.6700   52.0100 H   0  0  0  0  0  0  0  0  0  0  0  0
   29.6700   17.2200   50.9200 C   0  0  0  0  0  0  0  0  0  0  0  0
   29.3700   16.1800   50.8400 H   0  0  0  0  0  0  0  0  0  0  0  0
   30.7800   17.2900   50.9700 H   0  0  0  0  0  0  0  0  0  0  0  0
   29.1000   17.8600   49.6400 C   0  0  0  0  0  0  0  0  0  0  0  0
   28.0500   17.5400   49.4900 H   0  0  0  0  0  0  0  0  0  0  0  0
   29.7300   17.5500   48.7700 H   0  0  0  0  0  0  0  0  0  0  0  0
   29.0100   19.3700   49.7400 C   0  0  0  0  0  0  0  0  0  0  0  0
   29.8400   19.5000   50.4000 H   0  0  0  0  0  0  0  0  0  0  0  0
   28.2700   19.7800   50.4500 H   0  0  0  0  0  0  0  0  0  0  0  0
   28.9700   20.1000   48.3800 C   0  0  0  0  0  0  0  0  0  0  0  0
   28.0200   19.7600   47.9200 H   0  0  0  0  0  0  0  0  0  0  0  0
   29.7600   19.7700   47.6700 H   0  0  0  0  0  0  0  0  0  0  0  0
   28.9900   21.6100   48.4100 C   0  0  0  0  0  0  0  0  0  0  0  0
   29.9500   22.1100   48.2600 H   0  0  0  0  0  0  0  0  0  0  0  0
   27.9000   22.3400   48.6600 C   0  0  0  0  0  0  0  0  0  0  0  0
   27.9600   23.4400   48.6000 H   0  0  0  0  0  0  0  0  0  0  0  0
   26.5500   21.7400   48.9300 C   0  0  0  0  0  0  0  0  0  0  0  0
   26.1000   22.2900   49.8000 H   0  0  0  0  0  0  0  0  0  0  0  0
   26.5400   20.6600   49.1600 H   0  0  0  0  0  0  0  0  0  0  0  0
   25.5700   21.9600   47.8100 C   0  0  0  0  0  0  0  0  0  0  0  0
   25.7100   23.0400   47.8500 H   0  0  0  0  0  0  0  0  0  0  0  0
   24.5200   21.6800   48.0700 H   0  0  0  0  0  0  0  0  0  0  0  0
   25.9000   21.5100   46.4000 C   0  0  0  0  0  0  0  0  0  0  0  0
   26.1400   20.4300   46.4400 H   0  0  0  0  0  0  0  0  0  0  0  0
   26.7800   22.0700   46.0000 H   0  0  0  0  0  0  0  0  0  0  0  0
   24.7200   21.7400   45.4800 C   0  0  0  0  0  0  0  0  0  0  0  0
   24.6700   22.7900   45.1100 H   0  0  0  0  0  0  0  0  0  0  0  0
   23.7700   21.5400   46.0300 H   0  0  0  0  0  0  0  0  0  0  0  0
   24.7300   20.8300   44.2800 C   0  0  0  0  0  0  0  0  0  0  0  0
   25.0500   19.7900   44.4800 H   0  0  0  0  0  0  0  0  0  0  0  0
   25.4700   21.2700   43.5600 H   0  0  0  0  0  0  0  0  0  0  0  0
   23.2900   20.8000   43.7900 C   0  0  0  0  0  0  0  0  0  0  0  0
   22.7900   21.7800   43.9300 H   0  0  0  0  0  0  0  0  0  0  0  0
   22.6900   19.9700   44.2200 H   0  0  0  0  0  0  0  0  0  0  0  0
   23.2900   20.4300   42.3800 C   0  0  0  0  0  0  0  0  0  0  0  0
   24.0600   21.1100   41.9100 H   0  0  0  0  0  0  0  0  0  0  0  0
   22.3400   20.7500   41.9100 H   0  0  0  0  0  0  0  0  0  0  0  0
   23.5500   18.8800   42.3300 C   0  0  0  0  0  0  0  0  0  0  0  0
   24.6200   18.6300   42.1300 H   0  0  0  0  0  0  0  0  0  0  0  0
   22.6800   18.2400   42.5400 H   0  0  0  0  0  0  0  0  0  0  0  0
   23.3200   18.3300   41.4100 H   0  0  0  0  0  0  0  0  0  0  0  0
  1 14  1  0  0  0  0
  1 10  1  0  0  0  0
  2  1  1  0  0  0  0
  2  4  1  0  0  0  0
  3  2  1  0  0  0  0
  5  2  1  0  0  0  0
  6  7  1  0  0  0  0
  6  1  1  0  0  0  0
  8  6  1  0  0  0  0
  9  6  1  0  0  0  0
 10 13  1  0  0  0  0
 10 11  1  0  0  0  0
 12 10  1  0  0  0  0
 14 16  1  0  0  0  0
 15 14  1  0  0  0  0
 17 19  1  0  0  0  0
 17 18  1  0  0  0  0
 17 14  1  0  0  0  0
 20 22  2  6  0  0  0
 20 24  1  0  0  0  0
 20 21  1  0  0  0  0
 20 23  1  0  0  0  0
 23 17  1  0  0  0  0
 25 24  1  0  0  0  0
 25 27  1  0  0  0  0
 25 26  1  0  0  0  0
 28 29  1  1  0  0  0
 28 25  1  0  0  0  0
 30 28  1  0  0  0  0
 31 30  1  0  0  0  0
 32 31  2  0  0  0  0
 33 34  1  0  0  0  0
 33 35  1  0  0  0  0
 33 31  1  0  0  0  0
 36 37  1  0  0  0  0
 36 28  1  0  0  0  0
 38 36  1  0  0  0  0
 39 36  1  0  0  0  0
 40 42  1  0  0  0  0
 40 39  1  0  0  0  0
 41 40  2  0  0  0  0
 42 43  1  0  0  0  0
 42 44  1  0  0  0  0
 45 33  1  0  0  0  0
 46 45  1  0  0  0  0
 47 45  1  0  0  0  0
 48 50  1  0  0  0  0
 48 45  1  0  0  0  0
 49 48  1  0  0  0  0
 51 48  1  0  0  0  0
 51 52  1  0  0  0  0
 53 51  1  0  0  0  0
 54 55  1  0  0  0  0
 54 51  1  0  0  0  0
 56 54  1  0  0  0  0
 57 58  1  0  0  0  0
 57 54  1  0  0  0  0
 59 57  1  0  0  0  0
 60 57  1  0  0  0  0
 60 61  1  0  0  0  0
 62 60  1  0  0  0  0
 63 60  1  0  0  0  0
 63 65  1  0  0  0  0
 63 64  1  0  0  0  0
 66 63  1  0  0  0  0
 67 66  1  0  0  0  0
 68 66  1  0  0  0  0
 69 66  1  0  0  0  0
 69 71  1  0  0  0  0
 69 70  1  0  0  0  0
 72 69  1  0  0  0  0
 73 72  1  0  0  0  0
 74 72  1  0  0  0  0
 75 76  1  0  0  0  0
 75 72  1  0  0  0  0
 77 75  2  0  0  0  0
 78 77  1  0  0  0  0
 79 77  1  0  0  0  0
 79 80  1  0  0  0  0
 79 82  1  0  0  0  0
 81 79  1  0  0  0  0
 82 84  1  0  0  0  0
 83 82  1  0  0  0  0
 85 87  1  0  0  0  0
 85 82  1  0  0  0  0
 85 86  1  0  0  0  0
 88 85  1  0  0  0  0
 89 88  1  0  0  0  0
 90 88  1  0  0  0  0
 91 88  1  0  0  0  0
 91 92  1  0  0  0  0
 93 91  1  0  0  0  0
 94 96  1  0  0  0  0
 94 91  1  0  0  0  0
 95 94  1  0  0  0  0
 97 98  1  0  0  0  0
 97 94  1  0  0  0  0
 99 97  1  0  0  0  0
100103  1  0  0  0  0
100 97  1  0  0  0  0
101100  1  0  0  0  0
102100  1  0  0  0  0
104105  1  0  0  0  0
104 42  1  0  0  0  0
106104  1  0  0  0  0
107108  1  0  0  0  0
107104  1  0  0  0  0
107109  1  0  0  0  0
110107  1  0  0  0  0
111110  1  0  0  0  0
112110  1  0  0  0  0
113110  1  0  0  0  0
113114  1  0  0  0  0
115113  1  0  0  0  0
116113  1  0  0  0  0
116117  1  0  0  0  0
118116  1  0  0  0  0
119120  1  0  0  0  0
119116  1  0  0  0  0
121119  1  0  0  0  0
122124  1  0  0  0  0
122119  1  0  0  0  0
123122  1  0  0  0  0
125128  1  0  0  0  0
125122  1  0  0  0  0
126125  1  0  0  0  0
127125  1  0  0  0  0
128129  1  0  0  0  0
128130  1  0  0  0  0
131134  1  0  0  0  0
131128  1  0  0  0  0
132131  1  0  0  0  0
133131  1  0  0  0  0
134136  2  0  0  0  0
135134  1  0  0  0  0
136138  1  0  0  0  0
137136  1  0  0  0  0
138140  1  0  0  0  0
138139  1  0  0  0  0
141142  1  0  0  0  0
141143  1  0  0  0  0
141138  1  0  0  0  0
144145  1  0  0  0  0
144141  1  0  0  0  0
146144  1  0  0  0  0
147149  1  0  0  0  0
147144  1  0  0  0  0
148147  1  0  0  0  0
150151  1  0  0  0  0
150147  1  0  0  0  0
152150  1  0  0  0  0
153154  1  0  0  0  0
153155  1  0  0  0  0
153150  1  0  0  0  0
156153  1  0  0  0  0
157156  1  0  0  0  0
158156  1  0  0  0  0
159156  1  0  0  0  0
159161  1  0  0  0  0
160159  1  0  0  0  0
162159  1  0  0  0  0
M  END
