SDPA
 OpenBabel02161614153D

124123  0  0  1  0  0  0  0  0999 V2000
   60.2900   15.6000   60.0400 P   0  0  2  0  0  0  0  0  0  0  0  0
   60.6300   16.4100   61.2200 O   0  0  0  0  0  0  0  0  0  0  0  0
   59.2100   15.9700   59.1200 O   0  0  0  0  0  0  0  0  0  0  0  0
   59.8900   14.2000   60.6600 O   0  0  0  0  0  0  0  0  0  0  0  0
   59.8500   13.4800   60.0500 H   0  0  0  0  0  0  0  0  0  0  0  0
   61.5900   15.3000   59.2000 O   0  0  0  0  0  0  0  0  0  0  0  0
   62.7400   14.6900   59.8000 C   0  0  0  0  0  0  0  0  0  0  0  0
   62.4200   13.9200   60.5500 H   0  0  0  0  0  0  0  0  0  0  0  0
   63.3800   15.4300   60.3200 H   0  0  0  0  0  0  0  0  0  0  0  0
   63.6500   13.9600   58.7600 C   0  0  2  0  0  0  0  0  0  0  0  0
   64.5600   13.5700   59.2800 H   0  0  0  0  0  0  0  0  0  0  0  0
   64.0300   14.7900   57.6500 O   0  0  0  0  0  0  0  0  0  0  0  0
   64.8200   15.8100   57.8600 C   0  0  0  0  0  0  0  0  0  0  0  0
   65.3600   16.1100   58.9100 O   0  0  0  0  0  0  0  0  0  0  0  0
   65.0200   16.5400   56.5500 C   0  0  0  0  0  0  0  0  0  0  0  0
   64.9300   15.8700   55.6800 H   0  0  0  0  0  0  0  0  0  0  0  0
   66.1000   16.8000   56.6100 H   0  0  0  0  0  0  0  0  0  0  0  0
   62.9100   12.7200   58.1900 C   0  0  0  0  0  0  0  0  0  0  0  0
   62.5000   12.1900   59.0700 H   0  0  0  0  0  0  0  0  0  0  0  0
   63.6400   12.0200   57.7200 H   0  0  0  0  0  0  0  0  0  0  0  0
   61.7800   13.0600   57.3700 O   0  0  0  0  0  0  0  0  0  0  0  0
   62.0000   12.9000   56.0800 C   0  0  0  0  0  0  0  0  0  0  0  0
   63.0100   12.4200   55.5900 O   0  0  0  0  0  0  0  0  0  0  0  0
   60.6900   13.2800   55.3700 C   0  0  0  0  0  0  0  0  0  0  0  0
   60.3600   14.2500   55.7400 H   0  0  0  0  0  0  0  0  0  0  0  0
   59.8900   12.5400   55.6300 H   0  0  0  0  0  0  0  0  0  0  0  0
   64.0800   17.7700   56.5000 C   0  0  0  0  0  0  0  0  0  0  0  0
   64.4500   18.5900   55.9100 H   0  0  0  0  0  0  0  0  0  0  0  0
   64.0600   18.2600   57.5000 H   0  0  0  0  0  0  0  0  0  0  0  0
   62.7700   17.5900   55.8100 C   0  0  0  0  0  0  0  0  0  0  0  0
   61.9400   17.6300   56.4900 H   0  0  0  0  0  0  0  0  0  0  0  0
   62.5700   17.4400   54.4900 C   0  0  0  0  0  0  0  0  0  0  0  0
   61.5700   17.3600   54.0600 H   0  0  0  0  0  0  0  0  0  0  0  0
   63.6400   17.4200   53.4700 C   0  0  0  0  0  0  0  0  0  0  0  0
   64.5900   17.1100   53.9500 H   0  0  0  0  0  0  0  0  0  0  0  0
   63.7100   18.4600   53.0800 H   0  0  0  0  0  0  0  0  0  0  0  0
   63.3600   16.5300   52.3300 C   0  0  0  0  0  0  0  0  0  0  0  0
   62.3500   16.6300   51.9300 H   0  0  0  0  0  0  0  0  0  0  0  0
   64.2400   15.7000   51.7800 C   0  0  0  0  0  0  0  0  0  0  0  0
   63.9000   15.0600   50.9600 H   0  0  0  0  0  0  0  0  0  0  0  0
   65.6500   15.5600   52.2600 C   0  0  0  0  0  0  0  0  0  0  0  0
   66.0300   16.4300   52.8100 H   0  0  0  0  0  0  0  0  0  0  0  0
   66.3300   15.4800   51.3800 H   0  0  0  0  0  0  0  0  0  0  0  0
   65.8500   14.4100   53.1600 C   0  0  0  0  0  0  0  0  0  0  0  0
   66.4700   14.5200   54.1000 H   0  0  0  0  0  0  0  0  0  0  0  0
   65.6600   13.2100   52.6600 C   0  0  0  0  0  0  0  0  0  0  0  0
   66.3300   12.5800   52.8900 H   0  0  0  0  0  0  0  0  0  0  0  0
   65.2900   12.4200   51.4800 C   0  0  0  0  0  0  0  0  0  0  0  0
   65.2600   13.2400   50.8000 H   0  0  0  0  0  0  0  0  0  0  0  0
   64.4100   11.9700   51.8900 H   0  0  0  0  0  0  0  0  0  0  0  0
   65.8400   11.2700   50.6700 C   0  0  0  0  0  0  0  0  0  0  0  0
   66.4500   10.5000   51.2700 H   0  0  0  0  0  0  0  0  0  0  0  0
   66.4500   11.6300   49.5100 C   0  0  0  0  0  0  0  0  0  0  0  0
   66.9100   10.6800   49.1500 H   0  0  0  0  0  0  0  0  0  0  0  0
   66.8400   13.0200   48.7100 C   0  0  0  0  0  0  0  0  0  0  0  0
   67.0400   13.8600   49.4200 H   0  0  0  0  0  0  0  0  0  0  0  0
   65.9200   13.1100   48.2400 H   0  0  0  0  0  0  0  0  0  0  0  0
   67.8700   13.3900   47.5000 C   0  0  0  0  0  0  0  0  0  0  0  0
   68.9700   13.5400   47.7200 H   0  0  0  0  0  0  0  0  0  0  0  0
   67.8600   13.0800   46.1900 C   0  0  0  0  0  0  0  0  0  0  0  0
   68.8400   12.7600   45.7100 H   0  0  0  0  0  0  0  0  0  0  0  0
   66.7500   12.2900   45.6800 C   0  0  0  0  0  0  0  0  0  0  0  0
   66.9100   12.4700   44.6200 H   0  0  0  0  0  0  0  0  0  0  0  0
   65.9200   12.8400   46.1000 H   0  0  0  0  0  0  0  0  0  0  0  0
   66.3800   10.8800   45.9400 C   0  0  0  0  0  0  0  0  0  0  0  0
   66.1200   10.4300   46.9100 H   0  0  0  0  0  0  0  0  0  0  0  0
   66.1200   10.0600   45.0300 C   0  0  0  0  0  0  0  0  0  0  0  0
   65.7900    9.1300   45.4200 H   0  0  0  0  0  0  0  0  0  0  0  0
   66.1400   10.4300   43.6200 C   0  0  0  0  0  0  0  0  0  0  0  0
   67.1600   10.1300   43.2500 H   0  0  0  0  0  0  0  0  0  0  0  0
   65.9700   11.4500   43.3700 H   0  0  0  0  0  0  0  0  0  0  0  0
   64.9500    9.8300   42.9800 C   0  0  0  0  0  0  0  0  0  0  0  0
   64.7800    8.9600   43.5400 H   0  0  0  0  0  0  0  0  0  0  0  0
   65.4600    9.7900   42.0500 H   0  0  0  0  0  0  0  0  0  0  0  0
   63.9400   10.0000   42.6500 H   0  0  0  0  0  0  0  0  0  0  0  0
   60.8000   13.4500   53.8400 C   0  0  0  0  0  0  0  0  0  0  0  0
   61.3100   12.6900   53.3200 H   0  0  0  0  0  0  0  0  0  0  0  0
   61.6000   14.1300   53.5300 H   0  0  0  0  0  0  0  0  0  0  0  0
   59.4500   13.3900   53.1200 C   0  0  0  0  0  0  0  0  0  0  0  0
   58.8500   12.4400   53.1800 H   0  0  0  0  0  0  0  0  0  0  0  0
   59.7100   13.4700   52.0500 H   0  0  0  0  0  0  0  0  0  0  0  0
   58.5500   14.4900   53.5700 C   0  0  0  0  0  0  0  0  0  0  0  0
   58.3200   14.3100   54.6600 H   0  0  0  0  0  0  0  0  0  0  0  0
   57.6100   14.4300   52.9900 H   0  0  0  0  0  0  0  0  0  0  0  0
   59.2800   15.8300   53.4000 C   0  0  0  0  0  0  0  0  0  0  0  0
   60.3800   15.6800   53.3700 H   0  0  0  0  0  0  0  0  0  0  0  0
   59.0200   16.4300   54.2900 H   0  0  0  0  0  0  0  0  0  0  0  0
   58.9800   16.6800   52.1700 C   0  0  0  0  0  0  0  0  0  0  0  0
   59.3500   17.7000   52.3400 H   0  0  0  0  0  0  0  0  0  0  0  0
   57.8700   16.6900   52.0200 H   0  0  0  0  0  0  0  0  0  0  0  0
   59.6500   16.1200   50.9200 C   0  0  0  0  0  0  0  0  0  0  0  0
   58.7800   15.4600   50.7700 H   0  0  0  0  0  0  0  0  0  0  0  0
   60.5600   15.5100   51.1400 H   0  0  0  0  0  0  0  0  0  0  0  0
   59.8800   17.0400   49.6900 C   0  0  0  0  0  0  0  0  0  0  0  0
   60.7500   17.6900   49.9100 H   0  0  0  0  0  0  0  0  0  0  0  0
   58.9700   17.6500   49.5000 H   0  0  0  0  0  0  0  0  0  0  0  0
   60.2500   16.4000   48.3300 C   0  0  0  0  0  0  0  0  0  0  0  0
   60.3700   17.1500   47.5500 H   0  0  0  0  0  0  0  0  0  0  0  0
   59.4100   15.9800   47.8000 H   0  0  0  0  0  0  0  0  0  0  0  0
   61.3100   15.3200   48.5300 C   0  0  0  0  0  0  0  0  0  0  0  0
   60.9600   14.5300   49.2400 H   0  0  0  0  0  0  0  0  0  0  0  0
   62.2200   15.7700   48.9300 H   0  0  0  0  0  0  0  0  0  0  0  0
   61.7200   14.5800   47.3100 C   0  0  0  0  0  0  0  0  0  0  0  0
   60.8200   14.0100   47.1000 H   0  0  0  0  0  0  0  0  0  0  0  0
   62.4600   13.8000   47.5300 H   0  0  0  0  0  0  0  0  0  0  0  0
   62.3600   15.5400   46.3000 C   0  0  0  0  0  0  0  0  0  0  0  0
   63.0400   16.2000   46.8400 H   0  0  0  0  0  0  0  0  0  0  0  0
   61.5700   16.1800   45.8300 H   0  0  0  0  0  0  0  0  0  0  0  0
   63.3300   14.9100   45.2600 C   0  0  0  0  0  0  0  0  0  0  0  0
   63.9900   14.0800   45.5000 H   0  0  0  0  0  0  0  0  0  0  0  0
   63.6700   15.6200   44.4900 H   0  0  0  0  0  0  0  0  0  0  0  0
   62.7700   13.7400   44.5800 C   0  0  0  0  0  0  0  0  0  0  0  0
   61.7900   14.2100   44.9100 H   0  0  0  0  0  0  0  0  0  0  0  0
   62.0000   13.3400   45.1300 H   0  0  0  0  0  0  0  0  0  0  0  0
   63.1300   13.2100   43.0000 C   0  0  0  0  0  0  0  0  0  0  0  0
   62.3000   12.6700   42.5400 H   0  0  0  0  0  0  0  0  0  0  0  0
   63.7900   12.4300   43.2100 H   0  0  0  0  0  0  0  0  0  0  0  0
   63.6600   14.0900   41.7300 C   0  0  0  0  0  0  0  0  0  0  0  0
   64.1100   14.9900   42.1500 H   0  0  0  0  0  0  0  0  0  0  0  0
   62.8900   14.4500   40.9800 H   0  0  0  0  0  0  0  0  0  0  0  0
   64.3000   13.7200   40.4400 C   0  0  0  0  0  0  0  0  0  0  0  0
   63.7800   13.0200   39.8200 H   0  0  0  0  0  0  0  0  0  0  0  0
   65.2200   13.2700   40.7000 H   0  0  0  0  0  0  0  0  0  0  0  0
   64.2700   14.5500   39.6900 H   0  0  0  0  0  0  0  0  0  0  0  0
  1  3  2  6  0  0  0
  1  4  1  0  0  0  0
  1  2  1  0  0  0  0
  5  4  1  0  0  0  0
  6  7  1  0  0  0  0
  6  1  1  0  0  0  0
  7  9  1  0  0  0  0
  7  8  1  0  0  0  0
 10 11  1  1  0  0  0
 10  7  1  0  0  0  0
 12 13  1  0  0  0  0
 12 10  1  0  0  0  0
 13 14  2  0  0  0  0
 15 17  1  0  0  0  0
 15 13  1  0  0  0  0
 16 15  1  0  0  0  0
 18 10  1  0  0  0  0
 18 19  1  0  0  0  0
 20 18  1  0  0  0  0
 21 18  1  0  0  0  0
 22 21  1  0  0  0  0
 23 22  2  0  0  0  0
 24 26  1  0  0  0  0
 24 25  1  0  0  0  0
 24 22  1  0  0  0  0
 27 15  1  0  0  0  0
 27 29  1  0  0  0  0
 28 27  1  0  0  0  0
 30 31  1  0  0  0  0
 30 27  1  0  0  0  0
 32 30  2  0  0  0  0
 33 32  1  0  0  0  0
 34 35  1  0  0  0  0
 34 32  1  0  0  0  0
 36 34  1  0  0  0  0
 37 34  1  0  0  0  0
 38 37  1  0  0  0  0
 39 41  1  0  0  0  0
 39 37  2  0  0  0  0
 40 39  1  0  0  0  0
 41 42  1  0  0  0  0
 41 44  1  0  0  0  0
 43 41  1  0  0  0  0
 44 45  1  0  0  0  0
 46 47  1  0  0  0  0
 46 44  1  0  0  0  0
 48 50  1  0  0  0  0
 48 46  1  0  0  0  0
 49 48  1  0  0  0  0
 51 52  1  0  0  0  0
 51 48  1  0  0  0  0
 53 51  1  0  0  0  0
 54 53  1  0  0  0  0
 55 56  1  0  0  0  0
 55 53  1  0  0  0  0
 57 55  1  0  0  0  0
 58 59  1  0  0  0  0
 58 55  1  0  0  0  0
 60 58  1  0  0  0  0
 61 60  1  0  0  0  0
 62 65  1  0  0  0  0
 62 64  1  0  0  0  0
 62 60  1  0  0  0  0
 63 62  1  0  0  0  0
 65 66  1  0  0  0  0
 67 68  1  0  0  0  0
 67 65  2  0  0  0  0
 69 67  1  0  0  0  0
 70 69  1  0  0  0  0
 71 69  1  0  0  0  0
 72 73  1  0  0  0  0
 72 69  1  0  0  0  0
 74 72  1  0  0  0  0
 75 72  1  0  0  0  0
 76 24  1  0  0  0  0
 77 76  1  0  0  0  0
 78 76  1  0  0  0  0
 79 80  1  0  0  0  0
 79 82  1  0  0  0  0
 79 76  1  0  0  0  0
 81 79  1  0  0  0  0
 82 83  1  0  0  0  0
 84 82  1  0  0  0  0
 85 82  1  0  0  0  0
 85 87  1  0  0  0  0
 86 85  1  0  0  0  0
 88 89  1  0  0  0  0
 88 85  1  0  0  0  0
 90 88  1  0  0  0  0
 91 93  1  0  0  0  0
 91 88  1  0  0  0  0
 92 91  1  0  0  0  0
 94 95  1  0  0  0  0
 94 91  1  0  0  0  0
 96 94  1  0  0  0  0
 97100  1  0  0  0  0
 97 94  1  0  0  0  0
 98 97  1  0  0  0  0
 99 97  1  0  0  0  0
100102  1  0  0  0  0
100101  1  0  0  0  0
103105  1  0  0  0  0
103100  1  0  0  0  0
104103  1  0  0  0  0
106107  1  0  0  0  0
106103  1  0  0  0  0
108106  1  0  0  0  0
109110  1  0  0  0  0
109106  1  0  0  0  0
111109  1  0  0  0  0
112113  1  0  0  0  0
112114  1  0  0  0  0
112109  1  0  0  0  0
115117  1  0  0  0  0
115112  1  0  0  0  0
116115  1  0  0  0  0
118119  1  0  0  0  0
118115  1  0  0  0  0
120118  1  0  0  0  0
121123  1  0  0  0  0
121118  1  0  0  0  0
122121  1  0  0  0  0
124121  1  0  0  0  0
M  END
