PNPI14
 OpenBabel02161614153D

136135  0  0  1  0  0  0  0  0999 V2000
   16.2900   35.4900   62.3900 C   0  0  2  0  0  0  0  0  0  0  0  0
   16.1100   36.5300   62.0100 H   0  0  0  0  0  0  0  0  0  0  0  0
   17.5700   35.0900   61.8700 O   0  0  0  0  0  0  0  0  0  0  0  0
   18.0100   35.8700   61.5300 H   0  0  0  0  0  0  0  0  0  0  0  0
   16.2000   35.5600   63.9200 C   0  0  2  0  0  0  0  0  0  0  0  0
   15.2500   36.0600   64.2200 H   0  0  0  0  0  0  0  0  0  0  0  0
   17.2700   36.3800   64.3700 O   0  0  0  0  0  0  0  0  0  0  0  0
   18.0500   35.8000   64.5300 H   0  0  0  0  0  0  0  0  0  0  0  0
   16.2400   34.1700   64.5600 C   0  0  1  0  0  0  0  0  0  0  0  0
   17.1700   33.6700   64.3100 H   0  0  0  0  0  0  0  0  0  0  0  0
   16.0400   34.3800   65.9700 O   0  0  0  0  0  0  0  0  0  0  0  0
   17.0100   33.6900   67.1300 P   0  0  0  0  0  0  0  0  0  0  0  0
   18.4300   33.9300   66.8000 O   0  0  0  0  0  0  0  0  0  0  0  0
   16.5500   32.2600   67.1400 O   0  0  0  0  0  0  0  0  0  0  0  0
   16.5900   34.3400   68.4400 O   0  0  0  0  0  0  0  0  0  0  0  0
   15.1200   33.3100   63.9900 C   0  0  2  0  0  0  0  0  0  0  0  0
   14.1600   33.7900   64.2700 H   0  0  0  0  0  0  0  0  0  0  0  0
   15.0500   31.9800   64.5200 O   0  0  0  0  0  0  0  0  0  0  0  0
   15.3100   31.9600   65.4700 H   0  0  0  0  0  0  0  0  0  0  0  0
   15.2000   33.2200   62.4700 C   0  0  1  0  0  0  0  0  0  0  0  0
   16.1800   32.7300   62.1900 H   0  0  0  0  0  0  0  0  0  0  0  0
   14.0600   32.4700   61.9900 O   0  0  0  0  0  0  0  0  0  0  0  0
   14.2700   32.1400   61.1100 H   0  0  0  0  0  0  0  0  0  0  0  0
   15.1700   34.6100   61.8600 C   0  0  2  0  0  0  0  0  0  0  0  0
   14.2000   35.0500   62.1900 H   0  0  0  0  0  0  0  0  0  0  0  0
   14.3200   35.4600   59.4900 P   0  0  2  0  0  0  0  0  0  0  0  0
   14.7200   36.8600   59.7400 O   0  0  0  0  0  0  0  0  0  0  0  0
   12.9200   35.1000   59.8300 O   0  0  0  0  0  0  0  0  0  0  0  0
   15.2800   34.5100   60.4300 O   0  0  0  0  0  0  0  0  0  0  0  0
   14.7100   34.9600   58.0500 O   0  0  0  0  0  0  0  0  0  0  0  0
   15.9600   35.2700   57.4600 C   0  0  0  0  0  0  0  0  0  0  0  0
   16.1500   34.5500   56.6200 H   0  0  0  0  0  0  0  0  0  0  0  0
   16.8000   35.2100   58.1900 H   0  0  0  0  0  0  0  0  0  0  0  0
   15.9400   36.6900   56.8700 C   0  0  2  0  0  0  0  0  0  0  0  0
   15.8500   37.3900   57.7300 H   0  0  0  0  0  0  0  0  0  0  0  0
   14.8200   36.8100   55.9800 O   0  0  0  0  0  0  0  0  0  0  0  0
   14.3200   38.0300   55.9000 C   0  0  0  0  0  0  0  0  0  0  0  0
   14.7400   39.0100   56.4800 O   0  0  0  0  0  0  0  0  0  0  0  0
   13.0700   37.9900   55.0300 C   0  0  0  0  0  0  0  0  0  0  0  0
   12.3200   38.6100   55.5600 H   0  0  0  0  0  0  0  0  0  0  0  0
   12.6900   36.9600   54.9800 H   0  0  0  0  0  0  0  0  0  0  0  0
   17.2900   36.9700   56.1500 C   0  0  0  0  0  0  0  0  0  0  0  0
   17.1500   37.9300   55.6000 H   0  0  0  0  0  0  0  0  0  0  0  0
   18.0100   37.1600   56.9800 H   0  0  0  0  0  0  0  0  0  0  0  0
   17.8500   35.8700   55.3700 O   0  0  0  0  0  0  0  0  0  0  0  0
   17.3100   35.6300   54.1700 C   0  0  0  0  0  0  0  0  0  0  0  0
   16.3000   36.1800   53.7800 O   0  0  0  0  0  0  0  0  0  0  0  0
   18.2300   34.6300   53.3300 C   0  0  0  0  0  0  0  0  0  0  0  0
   17.8400   33.6500   53.5700 H   0  0  0  0  0  0  0  0  0  0  0  0
   19.2600   34.7700   53.7000 H   0  0  0  0  0  0  0  0  0  0  0  0
   13.3100   38.7000   53.6700 C   0  0  0  0  0  0  0  0  0  0  0  0
   14.0400   39.5300   53.8000 H   0  0  0  0  0  0  0  0  0  0  0  0
   12.3600   39.1600   53.3300 H   0  0  0  0  0  0  0  0  0  0  0  0
   13.7400   37.8000   52.5500 C   0  0  0  0  0  0  0  0  0  0  0  0
   14.5200   37.1300   52.9400 H   0  0  0  0  0  0  0  0  0  0  0  0
   14.1500   38.3700   51.6900 H   0  0  0  0  0  0  0  0  0  0  0  0
   12.6200   36.9300   52.0200 C   0  0  0  0  0  0  0  0  0  0  0  0
   11.9700   37.5600   51.3700 H   0  0  0  0  0  0  0  0  0  0  0  0
   11.9800   36.5200   52.8300 H   0  0  0  0  0  0  0  0  0  0  0  0
   13.2500   35.8000   51.2400 C   0  0  0  0  0  0  0  0  0  0  0  0
   14.0600   36.1200   50.5500 H   0  0  0  0  0  0  0  0  0  0  0  0
   12.3900   35.5400   50.5700 H   0  0  0  0  0  0  0  0  0  0  0  0
   13.7800   34.6600   52.1900 C   0  0  0  0  0  0  0  0  0  0  0  0
   13.0000   34.4100   52.9400 H   0  0  0  0  0  0  0  0  0  0  0  0
   14.6800   35.0100   52.7200 H   0  0  0  0  0  0  0  0  0  0  0  0
   14.2000   33.3100   51.6200 C   0  0  0  0  0  0  0  0  0  0  0  0
   14.2400   32.4600   52.3300 H   0  0  0  0  0  0  0  0  0  0  0  0
   15.1700   33.4100   51.1000 H   0  0  0  0  0  0  0  0  0  0  0  0
   13.0000   33.2200   50.8000 C   0  0  0  0  0  0  0  0  0  0  0  0
   12.1000   32.7000   51.1400 H   0  0  0  0  0  0  0  0  0  0  0  0
   13.1200   33.5300   49.5500 C   0  0  0  0  0  0  0  0  0  0  0  0
   12.2800   32.9800   49.1200 H   0  0  0  0  0  0  0  0  0  0  0  0
   14.4600   33.9300   48.8500 C   0  0  0  0  0  0  0  0  0  0  0  0
   15.1100   33.2200   48.2900 H   0  0  0  0  0  0  0  0  0  0  0  0
   15.4600   33.6200   49.2800 H   0  0  0  0  0  0  0  0  0  0  0  0
   14.4300   34.9300   47.8100 C   0  0  0  0  0  0  0  0  0  0  0  0
   15.3500   35.3800   48.1200 H   0  0  0  0  0  0  0  0  0  0  0  0
   13.7900   35.2200   46.6400 C   0  0  0  0  0  0  0  0  0  0  0  0
   14.2800   36.0200   46.0800 H   0  0  0  0  0  0  0  0  0  0  0  0
   12.7100   34.6000   45.7500 C   0  0  0  0  0  0  0  0  0  0  0  0
   11.9100   35.3000   45.6000 H   0  0  0  0  0  0  0  0  0  0  0  0
   12.1900   33.6500   46.0700 H   0  0  0  0  0  0  0  0  0  0  0  0
   13.3500   34.1000   44.5000 C   0  0  0  0  0  0  0  0  0  0  0  0
   13.1700   33.0200   44.4800 H   0  0  0  0  0  0  0  0  0  0  0  0
   13.6000   34.4300   43.2600 C   0  0  0  0  0  0  0  0  0  0  0  0
   13.9200   33.6000   42.5900 H   0  0  0  0  0  0  0  0  0  0  0  0
   13.1000   35.7300   42.7000 C   0  0  0  0  0  0  0  0  0  0  0  0
   13.7400   36.5800   42.6200 H   0  0  0  0  0  0  0  0  0  0  0  0
   12.3500   36.0900   43.4600 H   0  0  0  0  0  0  0  0  0  0  0  0
   12.4900   35.5600   41.3000 C   0  0  0  0  0  0  0  0  0  0  0  0
   12.1600   34.6200   41.5700 H   0  0  0  0  0  0  0  0  0  0  0  0
   11.4700   35.9900   41.1900 H   0  0  0  0  0  0  0  0  0  0  0  0
   12.7700   34.8300   40.5000 H   0  0  0  0  0  0  0  0  0  0  0  0
   18.3100   34.6400   51.7300 C   0  0  0  0  0  0  0  0  0  0  0  0
   19.0700   35.4300   51.4100 H   0  0  0  0  0  0  0  0  0  0  0  0
   17.2900   34.8400   51.3500 H   0  0  0  0  0  0  0  0  0  0  0  0
   18.9600   33.6000   50.9100 C   0  0  0  0  0  0  0  0  0  0  0  0
   18.2700   32.7400   50.9700 H   0  0  0  0  0  0  0  0  0  0  0  0
   19.9500   33.5500   51.4300 H   0  0  0  0  0  0  0  0  0  0  0  0
   19.1400   34.0000   49.4400 C   0  0  0  0  0  0  0  0  0  0  0  0
   19.6600   35.0100   49.3700 H   0  0  0  0  0  0  0  0  0  0  0  0
   18.1400   34.0000   48.9400 H   0  0  0  0  0  0  0  0  0  0  0  0
   19.9000   33.0700   48.6300 C   0  0  0  0  0  0  0  0  0  0  0  0
   19.7800   32.0500   49.0200 H   0  0  0  0  0  0  0  0  0  0  0  0
   20.8000   33.5600   48.8800 H   0  0  0  0  0  0  0  0  0  0  0  0
   19.8500   33.2100   47.1700 C   0  0  0  0  0  0  0  0  0  0  0  0
   18.8400   32.8800   46.8600 H   0  0  0  0  0  0  0  0  0  0  0  0
   20.6300   32.5500   46.7200 H   0  0  0  0  0  0  0  0  0  0  0  0
   20.0500   34.6500   46.7100 C   0  0  0  0  0  0  0  0  0  0  0  0
   20.9600   35.2100   46.9700 H   0  0  0  0  0  0  0  0  0  0  0  0
   19.2500   35.2200   47.0900 H   0  0  0  0  0  0  0  0  0  0  0  0
   19.8700   34.5300   45.2500 C   0  0  0  0  0  0  0  0  0  0  0  0
   19.1100   33.8400   44.8600 H   0  0  0  0  0  0  0  0  0  0  0  0
   20.5000   33.7000   45.2000 H   0  0  0  0  0  0  0  0  0  0  0  0
   20.0300   35.6400   44.2200 C   0  0  0  0  0  0  0  0  0  0  0  0
   21.1000   35.9700   44.0300 H   0  0  0  0  0  0  0  0  0  0  0  0
   19.9400   36.6500   44.6400 H   0  0  0  0  0  0  0  0  0  0  0  0
   19.0100   35.0600   42.9100 C   0  0  0  0  0  0  0  0  0  0  0  0
   19.4800   34.4100   42.2200 H   0  0  0  0  0  0  0  0  0  0  0  0
   19.7400   35.8000   42.5500 H   0  0  0  0  0  0  0  0  0  0  0  0
   17.1300   35.2700   42.5800 C   0  0  0  0  0  0  0  0  0  0  0  0
   16.4300   36.1400   43.0100 H   0  0  0  0  0  0  0  0  0  0  0  0
   16.6200   34.5500   43.1900 H   0  0  0  0  0  0  0  0  0  0  0  0
   16.3000   35.9600   41.5000 C   0  0  0  0  0  0  0  0  0  0  0  0
   16.4600   36.9800   41.0500 H   0  0  0  0  0  0  0  0  0  0  0  0
   15.2200   35.9800   41.7600 H   0  0  0  0  0  0  0  0  0  0  0  0
   16.7700   34.8500   40.7900 C   0  0  0  0  0  0  0  0  0  0  0  0
   17.8900   35.0500   40.7500 H   0  0  0  0  0  0  0  0  0  0  0  0
   16.1800   35.0800   39.9300 H   0  0  0  0  0  0  0  0  0  0  0  0
   16.5000   33.4400   41.2800 C   0  0  0  0  0  0  0  0  0  0  0  0
   15.4500   33.5900   41.5900 H   0  0  0  0  0  0  0  0  0  0  0  0
   17.2700   33.1300   42.0200 H   0  0  0  0  0  0  0  0  0  0  0  0
   16.5000   32.3200   40.3600 C   0  0  0  0  0  0  0  0  0  0  0  0
   15.5600   32.6000   39.8200 H   0  0  0  0  0  0  0  0  0  0  0  0
   17.4400   32.3000   39.7600 H   0  0  0  0  0  0  0  0  0  0  0  0
   16.3500   31.2800   40.5800 H   0  0  0  0  0  0  0  0  0  0  0  0
  1  2  1  6  0  0  0
  1  5  1  0  0  0  0
  3  1  1  0  0  0  0
  4  3  1  0  0  0  0
  5  6  1  1  0  0  0
  5  7  1  0  0  0  0
  5  9  1  0  0  0  0
  7  8  1  0  0  0  0
  9 10  1  6  0  0  0
  9 11  1  0  0  0  0
 11 12  1  0  0  0  0
 12 14  1  0  0  0  0
 12 15  1  0  0  0  0
 13 12  2  0  0  0  0
 16 17  1  1  0  0  0
 16 18  1  0  0  0  0
 16  9  1  0  0  0  0
 18 19  1  0  0  0  0
 20 21  1  6  0  0  0
 20 16  1  0  0  0  0
 22 20  1  0  0  0  0
 23 22  1  0  0  0  0
 24 25  1  1  0  0  0
 24  1  1  0  0  0  0
 24 20  1  0  0  0  0
 26 30  1  6  0  0  0
 26 27  2  0  0  0  0
 26 28  1  0  0  0  0
 26 29  1  0  0  0  0
 29 24  1  0  0  0  0
 31 30  1  0  0  0  0
 31 33  1  0  0  0  0
 32 31  1  0  0  0  0
 34 31  1  0  0  0  0
 34 35  1  1  0  0  0
 36 34  1  0  0  0  0
 37 36  1  0  0  0  0
 37 38  2  0  0  0  0
 39 40  1  0  0  0  0
 39 37  1  0  0  0  0
 41 39  1  0  0  0  0
 42 34  1  0  0  0  0
 42 44  1  0  0  0  0
 43 42  1  0  0  0  0
 45 42  1  0  0  0  0
 46 45  1  0  0  0  0
 47 46  2  0  0  0  0
 48 49  1  0  0  0  0
 48 50  1  0  0  0  0
 48 46  1  0  0  0  0
 51 52  1  0  0  0  0
 51 39  1  0  0  0  0
 53 51  1  0  0  0  0
 54 55  1  0  0  0  0
 54 51  1  0  0  0  0
 56 54  1  0  0  0  0
 57 54  1  0  0  0  0
 57 59  1  0  0  0  0
 58 57  1  0  0  0  0
 60 57  1  0  0  0  0
 60 63  1  0  0  0  0
 61 60  1  0  0  0  0
 62 60  1  0  0  0  0
 63 65  1  0  0  0  0
 63 64  1  0  0  0  0
 66 63  1  0  0  0  0
 66 67  1  0  0  0  0
 68 66  1  0  0  0  0
 69 70  1  0  0  0  0
 69 66  1  0  0  0  0
 71 69  1  0  0  0  0
 72 71  1  0  0  0  0
 73 75  1  0  0  0  0
 73 71  1  0  0  0  0
 74 73  1  0  0  0  0
 76 77  1  0  0  0  0
 76 73  1  0  0  0  0
 78 76  2  0  0  0  0
 79 78  1  0  0  0  0
 80 82  1  0  0  0  0
 80 78  1  0  0  0  0
 81 80  1  0  0  0  0
 83 80  1  0  0  0  0
 84 83  1  0  0  0  0
 85 83  1  0  0  0  0
 86 85  1  0  0  0  0
 87 85  1  0  0  0  0
 87 89  1  0  0  0  0
 88 87  1  0  0  0  0
 90 91  1  0  0  0  0
 90 87  1  0  0  0  0
 92 90  1  0  0  0  0
 93 90  1  0  0  0  0
 94 48  1  0  0  0  0
 95 94  1  0  0  0  0
 96 94  1  0  0  0  0
 97 98  1  0  0  0  0
 97 99  1  0  0  0  0
 97 94  1  0  0  0  0
100 97  1  0  0  0  0
101100  1  0  0  0  0
102100  1  0  0  0  0
103105  1  0  0  0  0
103104  1  0  0  0  0
103100  1  0  0  0  0
106103  1  0  0  0  0
107106  1  0  0  0  0
108106  1  0  0  0  0
109110  1  0  0  0  0
109111  1  0  0  0  0
109106  1  0  0  0  0
112109  1  0  0  0  0
113112  1  0  0  0  0
114112  1  0  0  0  0
115117  1  0  0  0  0
115112  1  0  0  0  0
116115  1  0  0  0  0
118115  1  0  0  0  0
119118  1  0  0  0  0
120118  1  0  0  0  0
121122  1  0  0  0  0
121123  1  0  0  0  0
124126  1  0  0  0  0
124121  1  0  0  0  0
125124  1  0  0  0  0
127130  1  0  0  0  0
127124  1  0  0  0  0
128127  1  0  0  0  0
129127  1  0  0  0  0
130131  1  0  0  0  0
130132  1  0  0  0  0
133136  1  0  0  0  0
133130  1  0  0  0  0
134133  1  0  0  0  0
135133  1  0  0  0  0
M  END
