IPPC
 OpenBabel02161614153D

130129  0  0  1  0  0  0  0  0999 V2000
    7.8200   22.1600   57.1800 N   0  0  0  0  0  0  0  0  0  0  0  0
    7.0400   21.1800   58.0000 C   0  0  0  0  0  0  0  0  0  0  0  0
    7.5500   20.9200   58.9300 H   0  0  0  0  0  0  0  0  0  0  0  0
    6.7600   20.2900   57.4800 H   0  0  0  0  0  0  0  0  0  0  0  0
    6.1200   21.6500   58.3500 H   0  0  0  0  0  0  0  0  0  0  0  0
    9.0800   21.5400   56.6700 C   0  0  0  0  0  0  0  0  0  0  0  0
    9.5900   22.2000   55.9800 H   0  0  0  0  0  0  0  0  0  0  0  0
    8.9000   20.5900   56.1900 H   0  0  0  0  0  0  0  0  0  0  0  0
    9.7600   21.3600   57.5000 H   0  0  0  0  0  0  0  0  0  0  0  0
    6.9300   22.5800   56.0400 C   0  0  0  0  0  0  0  0  0  0  0  0
    6.8900   23.6600   56.0000 H   0  0  0  0  0  0  0  0  0  0  0  0
    5.9100   22.2700   56.2300 H   0  0  0  0  0  0  0  0  0  0  0  0
    7.2600   22.1900   55.0900 H   0  0  0  0  0  0  0  0  0  0  0  0
    8.2000   23.3900   58.0100 C   0  0  0  0  0  0  0  0  0  0  0  0
    8.7500   24.0700   57.3700 H   0  0  0  0  0  0  0  0  0  0  0  0
    8.8800   23.0800   58.8100 H   0  0  0  0  0  0  0  0  0  0  0  0
    7.1000   24.2200   58.7200 C   0  0  0  0  0  0  0  0  0  0  0  0
    6.4200   24.6800   57.9700 H   0  0  0  0  0  0  0  0  0  0  0  0
    7.6500   25.0600   59.2100 H   0  0  0  0  0  0  0  0  0  0  0  0
    4.8900   23.2100   59.8000 P   0  0  1  0  0  0  0  0  0  0  0  0
    4.2300   24.2400   60.6400 O   0  0  0  0  0  0  0  0  0  0  0  0
    4.6300   21.8100   60.1800 O   0  0  0  0  0  0  0  0  0  0  0  0
    4.5100   23.3600   58.2600 O   0  0  0  0  0  0  0  0  0  0  0  0
    6.4500   23.4600   59.7300 O   0  0  0  0  0  0  0  0  0  0  0  0
    3.3100   22.7500   57.8000 C   0  0  0  0  0  0  0  0  0  0  0  0
    2.4500   23.3000   58.1800 H   0  0  0  0  0  0  0  0  0  0  0  0
    3.1600   21.7300   58.2000 H   0  0  0  0  0  0  0  0  0  0  0  0
    3.1300   22.7600   56.2500 C   0  0  2  0  0  0  0  0  0  0  0  0
    3.6400   21.8300   55.9200 H   0  0  0  0  0  0  0  0  0  0  0  0
    3.7200   23.9300   55.6400 O   0  0  0  0  0  0  0  0  0  0  0  0
    4.0200   23.7200   54.3600 C   0  0  0  0  0  0  0  0  0  0  0  0
    3.8000   22.6800   53.7600 O   0  0  0  0  0  0  0  0  0  0  0  0
    4.8000   24.8900   53.8100 C   0  0  0  0  0  0  0  0  0  0  0  0
    5.8600   24.7400   54.1000 H   0  0  0  0  0  0  0  0  0  0  0  0
    4.4500   25.8400   54.2700 H   0  0  0  0  0  0  0  0  0  0  0  0
    1.6100   22.6900   55.9300 C   0  0  0  0  0  0  0  0  0  0  0  0
    1.1900   23.7200   55.8800 H   0  0  0  0  0  0  0  0  0  0  0  0
    1.1700   22.2000   56.8100 H   0  0  0  0  0  0  0  0  0  0  0  0
    1.2000   21.9900   54.7400 O   0  0  0  0  0  0  0  0  0  0  0  0
    1.4500   20.7100   54.7900 C   0  0  0  0  0  0  0  0  0  0  0  0
    1.9500   20.1100   55.7300 O   0  0  0  0  0  0  0  0  0  0  0  0
    1.0600   20.1000   53.4700 C   0  0  0  0  0  0  0  0  0  0  0  0
    1.2800   20.8100   52.6500 H   0  0  0  0  0  0  0  0  0  0  0  0
   -0.0200   19.8500   53.4900 H   0  0  0  0  0  0  0  0  0  0  0  0
    4.6800   24.9200   52.2700 C   0  0  0  0  0  0  0  0  0  0  0  0
    3.6300   25.1600   51.9900 H   0  0  0  0  0  0  0  0  0  0  0  0
    4.9300   23.9200   51.8600 H   0  0  0  0  0  0  0  0  0  0  0  0
    5.6200   25.9400   51.6100 C   0  0  0  0  0  0  0  0  0  0  0  0
    6.6600   25.5600   51.6500 H   0  0  0  0  0  0  0  0  0  0  0  0
    5.5900   26.8800   52.2100 H   0  0  0  0  0  0  0  0  0  0  0  0
    5.2400   26.3300   50.1700 C   0  0  0  0  0  0  0  0  0  0  0  0
    6.1000   26.8700   49.7100 H   0  0  0  0  0  0  0  0  0  0  0  0
    4.4000   27.0600   50.2400 H   0  0  0  0  0  0  0  0  0  0  0  0
    4.7800   25.2000   49.2200 C   0  0  0  0  0  0  0  0  0  0  0  0
    4.2600   25.7200   48.3800 H   0  0  0  0  0  0  0  0  0  0  0  0
    4.0200   24.5500   49.7000 H   0  0  0  0  0  0  0  0  0  0  0  0
    5.9100   24.3600   48.5900 C   0  0  0  0  0  0  0  0  0  0  0  0
    6.8200   24.9800   48.4800 H   0  0  0  0  0  0  0  0  0  0  0  0
    5.5700   24.0800   47.5700 H   0  0  0  0  0  0  0  0  0  0  0  0
    6.2200   23.0700   49.3800 C   0  0  0  0  0  0  0  0  0  0  0  0
    5.2700   22.5000   49.4800 H   0  0  0  0  0  0  0  0  0  0  0  0
    6.5700   23.3500   50.3900 H   0  0  0  0  0  0  0  0  0  0  0  0
    7.2800   22.1500   48.7500 C   0  0  0  0  0  0  0  0  0  0  0  0
    7.3500   21.2000   49.3200 H   0  0  0  0  0  0  0  0  0  0  0  0
    8.2700   22.6600   48.7600 H   0  0  0  0  0  0  0  0  0  0  0  0
    6.9500   21.8200   47.3100 C   0  0  0  0  0  0  0  0  0  0  0  0
    7.0900   22.7700   46.7800 H   0  0  0  0  0  0  0  0  0  0  0  0
    5.8900   21.5800   47.2400 H   0  0  0  0  0  0  0  0  0  0  0  0
    7.6900   20.6400   46.6800 C   0  0  0  0  0  0  0  0  0  0  0  0
    7.3100   19.6700   47.0700 H   0  0  0  0  0  0  0  0  0  0  0  0
    8.7800   20.7000   46.8800 H   0  0  0  0  0  0  0  0  0  0  0  0
    7.5000   20.6500   45.1700 C   0  0  0  0  0  0  0  0  0  0  0  0
    6.4300   20.5000   44.9000 H   0  0  0  0  0  0  0  0  0  0  0  0
    8.0800   19.7900   44.7600 H   0  0  0  0  0  0  0  0  0  0  0  0
    7.8700   22.0000   44.5900 C   0  0  0  0  0  0  0  0  0  0  0  0
    7.2600   22.8500   44.9400 H   0  0  0  0  0  0  0  0  0  0  0  0
    8.9500   22.2100   44.7900 H   0  0  0  0  0  0  0  0  0  0  0  0
    7.5800   22.0700   43.1400 C   0  0  0  0  0  0  0  0  0  0  0  0
    6.5600   21.7100   42.8500 H   0  0  0  0  0  0  0  0  0  0  0  0
    7.8500   23.4300   42.5800 C   0  0  0  0  0  0  0  0  0  0  0  0
    7.6200   23.2800   41.5200 H   0  0  0  0  0  0  0  0  0  0  0  0
    7.1700   24.2100   42.9500 H   0  0  0  0  0  0  0  0  0  0  0  0
    8.9200   23.7200   42.7200 H   0  0  0  0  0  0  0  0  0  0  0  0
    8.5300   21.1500   42.5400 C   0  0  0  0  0  0  0  0  0  0  0  0
    8.4900   21.2500   41.4300 H   0  0  0  0  0  0  0  0  0  0  0  0
    8.2600   20.1000   42.7900 H   0  0  0  0  0  0  0  0  0  0  0  0
    9.5600   21.3500   42.9100 H   0  0  0  0  0  0  0  0  0  0  0  0
    1.9000   18.8600   53.2700 C   0  0  0  0  0  0  0  0  0  0  0  0
    1.5400   18.0800   53.9900 H   0  0  0  0  0  0  0  0  0  0  0  0
    2.9700   19.0400   53.4800 H   0  0  0  0  0  0  0  0  0  0  0  0
    1.8900   18.3200   51.8600 C   0  0  0  0  0  0  0  0  0  0  0  0
    0.9500   17.7500   51.6900 H   0  0  0  0  0  0  0  0  0  0  0  0
    2.7500   17.6400   51.8100 H   0  0  0  0  0  0  0  0  0  0  0  0
    2.4600   19.1100   50.7100 C   0  0  0  0  0  0  0  0  0  0  0  0
    3.5100   19.3500   50.9200 H   0  0  0  0  0  0  0  0  0  0  0  0
    1.8500   20.0300   50.6000 H   0  0  0  0  0  0  0  0  0  0  0  0
    2.4600   18.2500   49.4500 C   0  0  0  0  0  0  0  0  0  0  0  0
    1.4900   17.7300   49.4000 H   0  0  0  0  0  0  0  0  0  0  0  0
    3.0700   17.3300   49.4200 H   0  0  0  0  0  0  0  0  0  0  0  0
    2.8100   19.1100   48.2200 C   0  0  0  0  0  0  0  0  0  0  0  0
    2.4100   18.5300   47.3600 H   0  0  0  0  0  0  0  0  0  0  0  0
    3.9000   19.1500   48.1300 H   0  0  0  0  0  0  0  0  0  0  0  0
    2.2400   20.5500   48.1400 C   0  0  0  0  0  0  0  0  0  0  0  0
    2.7300   21.2500   48.8400 H   0  0  0  0  0  0  0  0  0  0  0  0
    1.1800   20.6900   48.4600 H   0  0  0  0  0  0  0  0  0  0  0  0
    2.2800   21.0200   46.6900 C   0  0  0  0  0  0  0  0  0  0  0  0
    1.4100   21.6100   46.4700 H   0  0  0  0  0  0  0  0  0  0  0  0
    2.2200   20.2500   45.9100 H   0  0  0  0  0  0  0  0  0  0  0  0
    3.5100   21.7900   46.4500 C   0  0  0  0  0  0  0  0  0  0  0  0
    4.2300   21.0100   46.7800 H   0  0  0  0  0  0  0  0  0  0  0  0
    3.5300   22.6900   47.1100 H   0  0  0  0  0  0  0  0  0  0  0  0
    3.7300   22.0800   44.9900 C   0  0  0  0  0  0  0  0  0  0  0  0
    3.2400   21.3300   44.3300 H   0  0  0  0  0  0  0  0  0  0  0  0
    4.8300   22.0200   44.8200 H   0  0  0  0  0  0  0  0  0  0  0  0
    3.2600   23.4400   44.5100 C   0  0  0  0  0  0  0  0  0  0  0  0
    3.5200   24.2500   45.2100 H   0  0  0  0  0  0  0  0  0  0  0  0
    2.1900   23.5100   44.3100 H   0  0  0  0  0  0  0  0  0  0  0  0
    3.8100   23.6200   43.1200 C   0  0  0  0  0  0  0  0  0  0  0  0
    3.8200   22.6300   42.5900 H   0  0  0  0  0  0  0  0  0  0  0  0
    4.8500   23.9900   43.2100 H   0  0  0  0  0  0  0  0  0  0  0  0
    2.9500   24.5800   42.3300 C   0  0  0  0  0  0  0  0  0  0  0  0
    2.5600   25.3900   42.9800 H   0  0  0  0  0  0  0  0  0  0  0  0
    2.0500   24.0300   41.9400 H   0  0  0  0  0  0  0  0  0  0  0  0
    3.8400   25.1300   41.2300 C   0  0  0  0  0  0  0  0  0  0  0  0
    4.8300   25.4200   41.6100 H   0  0  0  0  0  0  0  0  0  0  0  0
    3.4500   26.0400   40.7600 H   0  0  0  0  0  0  0  0  0  0  0  0
    3.9800   24.0700   40.1900 C   0  0  0  0  0  0  0  0  0  0  0  0
    3.0000   23.5300   40.1400 H   0  0  0  0  0  0  0  0  0  0  0  0
    4.7600   23.3100   40.4000 H   0  0  0  0  0  0  0  0  0  0  0  0
    4.2000   24.5400   39.2100 H   0  0  0  0  0  0  0  0  0  0  0  0
  1  2  1  0  0  0  0
  1 14  1  0  0  0  0
  2  5  1  0  0  0  0
  2  3  1  0  0  0  0
  4  2  1  0  0  0  0
  6  1  1  0  0  0  0
  6  9  1  0  0  0  0
  7  6  1  0  0  0  0
  8  6  1  0  0  0  0
 10 12  1  0  0  0  0
 10  1  1  0  0  0  0
 11 10  1  0  0  0  0
 13 10  1  0  0  0  0
 14 17  1  0  0  0  0
 14 16  1  0  0  0  0
 15 14  1  0  0  0  0
 17 19  1  0  0  0  0
 17 24  1  0  0  0  0
 18 17  1  0  0  0  0
 20 23  1  6  0  0  0
 20 22  2  0  0  0  0
 20 21  1  0  0  0  0
 24 20  1  0  0  0  0
 25 26  1  0  0  0  0
 25 27  1  0  0  0  0
 25 23  1  0  0  0  0
 28 29  1  6  0  0  0
 28 25  1  0  0  0  0
 30 28  1  0  0  0  0
 31 30  1  0  0  0  0
 32 31  2  0  0  0  0
 33 34  1  0  0  0  0
 33 35  1  0  0  0  0
 33 31  1  0  0  0  0
 36 28  1  0  0  0  0
 36 38  1  0  0  0  0
 37 36  1  0  0  0  0
 39 40  1  0  0  0  0
 39 36  1  0  0  0  0
 40 41  2  0  0  0  0
 42 44  1  0  0  0  0
 42 40  1  0  0  0  0
 43 42  1  0  0  0  0
 45 33  1  0  0  0  0
 46 45  1  0  0  0  0
 47 45  1  0  0  0  0
 48 49  1  0  0  0  0
 48 50  1  0  0  0  0
 48 45  1  0  0  0  0
 51 53  1  0  0  0  0
 51 48  1  0  0  0  0
 52 51  1  0  0  0  0
 54 56  1  0  0  0  0
 54 51  1  0  0  0  0
 55 54  1  0  0  0  0
 57 54  1  0  0  0  0
 57 60  1  0  0  0  0
 58 57  1  0  0  0  0
 59 57  1  0  0  0  0
 60 61  1  0  0  0  0
 60 62  1  0  0  0  0
 63 65  1  0  0  0  0
 63 64  1  0  0  0  0
 63 60  1  0  0  0  0
 66 63  1  0  0  0  0
 67 66  1  0  0  0  0
 68 66  1  0  0  0  0
 69 71  1  0  0  0  0
 69 70  1  0  0  0  0
 69 66  1  0  0  0  0
 72 69  1  0  0  0  0
 73 72  1  0  0  0  0
 74 72  1  0  0  0  0
 75 77  1  0  0  0  0
 75 76  1  0  0  0  0
 75 72  1  0  0  0  0
 78 75  1  0  0  0  0
 79 78  1  0  0  0  0
 80 83  1  0  0  0  0
 80 82  1  0  0  0  0
 80 78  1  0  0  0  0
 81 80  1  0  0  0  0
 84 86  1  0  0  0  0
 84 87  1  0  0  0  0
 84 78  1  0  0  0  0
 85 84  1  0  0  0  0
 88 42  1  0  0  0  0
 88 90  1  0  0  0  0
 88 89  1  0  0  0  0
 91 88  1  0  0  0  0
 92 91  1  0  0  0  0
 93 91  1  0  0  0  0
 94 95  1  0  0  0  0
 94 91  1  0  0  0  0
 96 94  1  0  0  0  0
 97 94  1  0  0  0  0
 98 97  1  0  0  0  0
 99 97  1  0  0  0  0
100 97  1  0  0  0  0
101100  1  0  0  0  0
102100  1  0  0  0  0
103100  1  0  0  0  0
103105  1  0  0  0  0
103104  1  0  0  0  0
106103  1  0  0  0  0
107106  1  0  0  0  0
108106  1  0  0  0  0
109106  1  0  0  0  0
109110  1  0  0  0  0
109111  1  0  0  0  0
112109  1  0  0  0  0
113112  1  0  0  0  0
114112  1  0  0  0  0
115112  1  0  0  0  0
115116  1  0  0  0  0
117115  1  0  0  0  0
118120  1  0  0  0  0
118115  1  0  0  0  0
119118  1  0  0  0  0
121122  1  0  0  0  0
121118  1  0  0  0  0
123121  1  0  0  0  0
124125  1  0  0  0  0
124121  1  0  0  0  0
126124  1  0  0  0  0
127129  1  0  0  0  0
127124  1  0  0  0  0
128127  1  0  0  0  0
130127  1  0  0  0  0
M  END
