DNPE
 OpenBabel02161614153D

165159  0  0  1  0  0  0  0  0999 V2000
   20.0100    3.4100   66.2700 N   0  0  0  0  0  0  0  0  0  0  0  0
   19.4400    4.2200   66.6300 H   0  0  0  0  0  0  0  0  0  0  0  0
   19.5600    2.5200   66.5500 H   0  0  0  0  0  0  0  0  0  0  0  0
   20.9800    3.4200   66.6900 H   0  0  0  0  0  0  0  0  0  0  0  0
   20.0700    3.4000   64.7600 C   0  0  0  0  0  0  0  0  0  0  0  0
   20.0200    2.3400   64.4500 H   0  0  0  0  0  0  0  0  0  0  0  0
   21.0400    3.8100   64.4400 H   0  0  0  0  0  0  0  0  0  0  0  0
   18.9000    4.1900   64.1500 C   0  0  0  0  0  0  0  0  0  0  0  0
   19.0000    4.1800   63.0400 H   0  0  0  0  0  0  0  0  0  0  0  0
   18.9500    5.2400   64.5100 H   0  0  0  0  0  0  0  0  0  0  0  0
   16.2700    4.2700   64.1300 P   0  0  1  0  0  0  0  0  0  0  0  0
   16.1000    5.5000   64.9000 O   0  0  0  0  0  0  0  0  0  0  0  0
   16.1100    4.3800   62.6600 O   0  0  0  0  0  0  0  0  0  0  0  0
   17.6600    3.5900   64.5100 O   0  0  0  0  0  0  0  0  0  0  0  0
   15.1800    3.2800   64.6500 O   0  0  0  0  0  0  0  0  0  0  0  0
   15.5500    2.2400   65.5600 C   0  0  0  0  0  0  0  0  0  0  0  0
   14.7300    2.0800   66.2900 H   0  0  0  0  0  0  0  0  0  0  0  0
   16.4900    2.4400   66.1400 H   0  0  0  0  0  0  0  0  0  0  0  0
   15.7900    0.9300   64.8300 C   0  0  2  0  0  0  0  0  0  0  0  0
   15.9800    0.1800   65.5900 H   0  0  0  0  0  0  0  0  0  0  0  0
   16.9500    1.1400   64.0400 O   0  0  0  0  0  0  0  0  0  0  0  0
   17.4400    0.1300   63.4100 C   0  0  0  0  0  0  0  0  0  0  0  0
   17.0900   -1.0300   63.5300 O   0  0  0  0  0  0  0  0  0  0  0  0
   18.5400    0.6900   62.5000 C   0  0  0  0  0  0  0  0  0  0  0  0
   18.5600    1.7800   62.4800 H   0  0  0  0  0  0  0  0  0  0  0  0
   18.3900    0.3900   61.4600 H   0  0  0  0  0  0  0  0  0  0  0  0
   14.5700    0.4800   63.9800 C   0  0  0  0  0  0  0  0  0  0  0  0
   13.7100    0.2300   64.6500 H   0  0  0  0  0  0  0  0  0  0  0  0
   14.9100   -0.4500   63.5400 H   0  0  0  0  0  0  0  0  0  0  0  0
   14.1900    1.3900   62.9300 O   0  0  0  0  0  0  0  0  0  0  0  0
   14.2600    0.9200   61.7100 C   0  0  0  0  0  0  0  0  0  0  0  0
   14.2700   -0.2500   61.3800 O   0  0  0  0  0  0  0  0  0  0  0  0
   14.2800    1.9800   60.7000 C   0  0  0  0  0  0  0  0  0  0  0  0
   14.4400    2.9600   61.1800 H   0  0  0  0  0  0  0  0  0  0  0  0
   13.2700    1.8900   60.2300 H   0  0  0  0  0  0  0  0  0  0  0  0
   19.9000    0.1500   62.7900 C   0  0  0  0  0  0  0  0  0  0  0  0
   19.7500   -0.8600   63.1200 H   0  0  0  0  0  0  0  0  0  0  0  0
   20.4000    0.5700   63.6600 H   0  0  0  0  0  0  0  0  0  0  0  0
   20.6900   -0.1400   61.5500 C   0  0  0  0  0  0  0  0  0  0  0  0
   20.0700   -0.6200   60.7600 H   0  0  0  0  0  0  0  0  0  0  0  0
   21.2200   -1.0100   61.9800 H   0  0  0  0  0  0  0  0  0  0  0  0
   21.6500    0.9900   61.0800 C   0  0  0  0  0  0  0  0  0  0  0  0
   22.5500    0.6700   60.5400 H   0  0  0  0  0  0  0  0  0  0  0  0
   22.2300    1.5300   61.8500 H   0  0  0  0  0  0  0  0  0  0  0  0
   20.9100    2.1100   60.4200 C   0  0  0  0  0  0  0  0  0  0  0  0
   21.6800    2.8800   60.1500 H   0  0  0  0  0  0  0  0  0  0  0  0
   20.2600    2.5600   61.2000 H   0  0  0  0  0  0  0  0  0  0  0  0
   20.0500    1.7200   59.2300 C   0  0  0  0  0  0  0  0  0  0  0  0
   19.3200    2.5400   59.0800 H   0  0  0  0  0  0  0  0  0  0  0  0
   19.4100    0.8400   59.4400 H   0  0  0  0  0  0  0  0  0  0  0  0
   20.8700    1.6700   57.9600 C   0  0  0  0  0  0  0  0  0  0  0  0
   21.5300    0.8600   57.7700 H   0  0  0  0  0  0  0  0  0  0  0  0
   21.5900    2.5100   57.8500 H   0  0  0  0  0  0  0  0  0  0  0  0
   20.0500    1.4600   56.7600 C   0  0  0  0  0  0  0  0  0  0  0  0
   19.5800    2.4000   56.4200 H   0  0  0  0  0  0  0  0  0  0  0  0
   19.2700    0.6700   56.9300 H   0  0  0  0  0  0  0  0  0  0  0  0
   20.9800    0.9700   55.7200 C   0  0  0  0  0  0  0  0  0  0  0  0
   21.3200   -0.0900   55.9100 H   0  0  0  0  0  0  0  0  0  0  0  0
   21.8800    1.5800   55.4800 H   0  0  0  0  0  0  0  0  0  0  0  0
   20.1700    1.0000   54.5500 C   0  0  0  0  0  0  0  0  0  0  0  0
   19.8200    1.9900   54.1400 H   0  0  0  0  0  0  0  0  0  0  0  0
   19.2000    0.4100   54.7600 H   0  0  0  0  0  0  0  0  0  0  0  0
   21.0600    0.0700   53.7300 C   0  0  0  0  0  0  0  0  0  0  0  0
   20.1200    0.3800   53.1100 H   0  0  0  0  0  0  0  0  0  0  0  0
   20.9000   -0.8900   54.1600 H   0  0  0  0  0  0  0  0  0  0  0  0
   22.7100   -0.1800   52.9000 C   0  0  0  0  0  0  0  0  0  0  0  0
   23.4400    0.5000   53.3100 H   0  0  0  0  0  0  0  0  0  0  0  0
   22.1800    0.8100   53.1600 H   0  0  0  0  0  0  0  0  0  0  0  0
   23.1100   -0.7700   50.7300 C   0  0  0  0  0  0  0  0  0  0  0  0
   23.0100   -1.6800   50.2600 H   0  0  0  0  0  0  0  0  0  0  0  0
   24.1600   -0.7600   50.8300 H   0  0  0  0  0  0  0  0  0  0  0  0
   21.8400   -0.4400   49.3300 C   0  0  0  0  0  0  0  0  0  0  0  0
   20.8500    0.0500   49.6100 H   0  0  0  0  0  0  0  0  0  0  0  0
   21.0500   -0.9500   48.4000 C   0  0  0  0  0  0  0  0  0  0  0  0
   20.0800   -0.4000   48.0400 H   0  0  0  0  0  0  0  0  0  0  0  0
   21.2500   -2.3100   48.4100 C   0  0  0  0  0  0  0  0  0  0  0  0
   20.3500   -2.1800   47.9700 H   0  0  0  0  0  0  0  0  0  0  0  0
   21.1200   -2.9900   49.2400 H   0  0  0  0  0  0  0  0  0  0  0  0
   22.2700   -2.1600   47.4000 C   0  0  0  0  0  0  0  0  0  0  0  0
   22.6500   -3.1600   47.6400 H   0  0  0  0  0  0  0  0  0  0  0  0
   23.0800   -1.3500   47.4600 H   0  0  0  0  0  0  0  0  0  0  0  0
   21.5900   -2.0600   46.1000 C   0  0  0  0  0  0  0  0  0  0  0  0
   21.9300   -1.1400   45.7100 H   0  0  0  0  0  0  0  0  0  0  0  0
   20.5100   -1.9200   46.1000 H   0  0  0  0  0  0  0  0  0  0  0  0
   22.1900   -2.9100   45.1200 C   0  0  0  0  0  0  0  0  0  0  0  0
   21.7500   -3.9300   45.1700 H   0  0  0  0  0  0  0  0  0  0  0  0
   23.1900   -3.0200   44.9200 H   0  0  0  0  0  0  0  0  0  0  0  0
   22.3300   -2.1200   43.9200 C   0  0  0  0  0  0  0  0  0  0  0  0
   23.0800   -1.9800   43.1700 H   0  0  0  0  0  0  0  0  0  0  0  0
   22.4500   -1.0500   43.9100 H   0  0  0  0  0  0  0  0  0  0  0  0
   21.4400   -2.9800   43.3800 C   0  0  0  0  0  0  0  0  0  0  0  0
   20.4300   -2.9000   44.0100 H   0  0  0  0  0  0  0  0  0  0  0  0
   21.7200   -3.9700   43.1900 H   0  0  0  0  0  0  0  0  0  0  0  0
   21.5100   -2.3700   42.1900 C   0  0  0  0  0  0  0  0  0  0  0  0
   20.7600   -1.7900   42.5200 H   0  0  0  0  0  0  0  0  0  0  0  0
   20.4700   -2.2400   42.4200 H   0  0  0  0  0  0  0  0  0  0  0  0
   22.1900   -2.2200   40.7900 C   0  0  0  0  0  0  0  0  0  0  0  0
   21.9000   -1.4800   39.9800 H   0  0  0  0  0  0  0  0  0  0  0  0
   23.0100   -1.5500   40.8700 H   0  0  0  0  0  0  0  0  0  0  0  0
   22.1000   -3.1200   40.1700 H   0  0  0  0  0  0  0  0  0  0  0  0
   15.3800    1.7100   59.6900 C   0  0  0  0  0  0  0  0  0  0  0  0
   15.3400    0.6700   59.3000 H   0  0  0  0  0  0  0  0  0  0  0  0
   16.3800    1.8800   60.1700 H   0  0  0  0  0  0  0  0  0  0  0  0
   15.1900    2.6700   58.5400 C   0  0  0  0  0  0  0  0  0  0  0  0
   14.9800    3.6800   58.9300 H   0  0  0  0  0  0  0  0  0  0  0  0
   14.2600    2.3500   58.0200 H   0  0  0  0  0  0  0  0  0  0  0  0
   16.3900    2.7400   57.6000 C   0  0  0  0  0  0  0  0  0  0  0  0
   17.3100    3.0500   58.1300 H   0  0  0  0  0  0  0  0  0  0  0  0
   16.1500    3.4400   56.7700 H   0  0  0  0  0  0  0  0  0  0  0  0
   16.6900    1.4000   57.0200 C   0  0  0  0  0  0  0  0  0  0  0  0
   17.0500    0.6200   57.7300 H   0  0  0  0  0  0  0  0  0  0  0  0
   17.3900    1.4900   56.1500 H   0  0  0  0  0  0  0  0  0  0  0  0
   15.4400    0.8500   56.5200 C   0  0  0  0  0  0  0  0  0  0  0  0
   14.9500    1.5900   55.8500 H   0  0  0  0  0  0  0  0  0  0  0  0
   14.6800    0.4800   57.2600 H   0  0  0  0  0  0  0  0  0  0  0  0
   15.8400   -0.3000   55.7700 C   0  0  0  0  0  0  0  0  0  0  0  0
   16.2600   -1.1800   56.3200 H   0  0  0  0  0  0  0  0  0  0  0  0
   16.7600   -0.1800   55.2000 H   0  0  0  0  0  0  0  0  0  0  0  0
   14.4600   -0.4300   55.1900 C   0  0  0  0  0  0  0  0  0  0  0  0
   13.6600   -0.7600   55.8700 H   0  0  0  0  0  0  0  0  0  0  0  0
   14.8000   -1.4500   54.9700 H   0  0  0  0  0  0  0  0  0  0  0  0
   13.6900    0.5600   54.0700 C   0  0  0  0  0  0  0  0  0  0  0  0
   12.7700    0.9000   54.1700 H   0  0  0  0  0  0  0  0  0  0  0  0
   12.8900   -0.2100   54.1400 H   0  0  0  0  0  0  0  0  0  0  0  0
   14.0000    1.1500   52.5000 C   0  0  0  0  0  0  0  0  0  0  0  0
   13.6200    0.8300   51.5200 H   0  0  0  0  0  0  0  0  0  0  0  0
   14.3300    0.4500   51.8000 H   0  0  0  0  0  0  0  0  0  0  0  0
   14.8100    2.4000   52.2900 C   0  0  0  0  0  0  0  0  0  0  0  0
   15.0300    2.6100   53.3600 H   0  0  0  0  0  0  0  0  0  0  0  0
   13.9900    2.8500   51.6900 H   0  0  0  0  0  0  0  0  0  0  0  0
   16.1500    2.9400   51.9000 C   0  0  0  0  0  0  0  0  0  0  0  0
   17.0500    2.4400   52.2900 H   0  0  0  0  0  0  0  0  0  0  0  0
   16.1200    3.9700   52.3500 H   0  0  0  0  0  0  0  0  0  0  0  0
   16.1600    3.4200   50.5300 C   0  0  0  0  0  0  0  0  0  0  0  0
   15.2200    3.6900   49.9900 H   0  0  0  0  0  0  0  0  0  0  0  0
   15.9300    2.6500   49.9100 H   0  0  0  0  0  0  0  0  0  0  0  0
   17.5700    3.5700   50.1200 C   0  0  0  0  0  0  0  0  0  0  0  0
   18.1900    2.6800   50.3000 H   0  0  0  0  0  0  0  0  0  0  0  0
   17.8100    4.4300   49.1500 C   0  0  0  0  0  0  0  0  0  0  0  0
   18.7600    4.3400   48.6200 H   0  0  0  0  0  0  0  0  0  0  0  0
   16.6600    5.2100   48.5400 C   0  0  0  0  0  0  0  0  0  0  0  0
   16.9500    6.2600   48.6500 H   0  0  0  0  0  0  0  0  0  0  0  0
   15.6900    5.2100   49.0800 H   0  0  0  0  0  0  0  0  0  0  0  0
   16.2600    4.8600   47.1000 C   0  0  0  0  0  0  0  0  0  0  0  0
   15.5100    5.6100   46.7900 H   0  0  0  0  0  0  0  0  0  0  0  0
   15.7700    3.8600   47.0000 H   0  0  0  0  0  0  0  0  0  0  0  0
   17.4500    4.9800   46.1700 C   0  0  0  0  0  0  0  0  0  0  0  0
   18.1200    4.1000   46.1600 H   0  0  0  0  0  0  0  0  0  0  0  0
   18.0800    5.7900   46.5500 H   0  0  0  0  0  0  0  0  0  0  0  0
   17.1000    5.3500   44.7600 C   0  0  0  0  0  0  0  0  0  0  0  0
   18.0800    5.6600   44.3600 H   0  0  0  0  0  0  0  0  0  0  0  0
   16.4500    6.2200   44.6200 H   0  0  0  0  0  0  0  0  0  0  0  0
   16.5000    4.2000   44.0000 C   0  0  0  0  0  0  0  0  0  0  0  0
   15.5000    3.8700   44.3000 H   0  0  0  0  0  0  0  0  0  0  0  0
   17.1900    3.3200   44.0600 H   0  0  0  0  0  0  0  0  0  0  0  0
   16.2200    4.5600   42.5900 C   0  0  0  0  0  0  0  0  0  0  0  0
   15.6300    5.4300   42.2300 H   0  0  0  0  0  0  0  0  0  0  0  0
   15.9200    3.5500   42.3000 H   0  0  0  0  0  0  0  0  0  0  0  0
   17.4000    4.6200   41.8600 C   0  0  0  0  0  0  0  0  0  0  0  0
   17.9900    3.9200   42.4000 H   0  0  0  0  0  0  0  0  0  0  0  0
   17.7500    5.6800   41.8000 H   0  0  0  0  0  0  0  0  0  0  0  0
   17.8300    3.6600   40.8400 C   0  0  0  0  0  0  0  0  0  0  0  0
   17.1600    4.0200   40.0500 H   0  0  0  0  0  0  0  0  0  0  0  0
   18.9100    3.7500   40.6800 H   0  0  0  0  0  0  0  0  0  0  0  0
   17.5300    2.7600   40.4700 H   0  0  0  0  0  0  0  0  0  0  0  0
  1  3  1  0  0  0  0
  1  2  1  0  0  0  0
  1  4  1  0  0  0  0
  5  1  1  0  0  0  0
  6  5  1  0  0  0  0
  7  5  1  0  0  0  0
  8 14  1  0  0  0  0
  8 10  1  0  0  0  0
  8  5  1  0  0  0  0
  9  8  1  0  0  0  0
 11 13  2  6  0  0  0
 11 14  1  0  0  0  0
 11 15  1  0  0  0  0
 11 12  1  0  0  0  0
 15 16  1  0  0  0  0
 16 18  1  0  0  0  0
 16 17  1  0  0  0  0
 19 16  1  0  0  0  0
 19 20  1  1  0  0  0
 21 19  1  0  0  0  0
 22 23  2  0  0  0  0
 22 21  1  0  0  0  0
 24 36  1  0  0  0  0
 24 22  1  0  0  0  0
 25 24  1  0  0  0  0
 26 24  1  0  0  0  0
 27 28  1  0  0  0  0
 27 19  1  0  0  0  0
 29 27  1  0  0  0  0
 30 27  1  0  0  0  0
 31 30  1  0  0  0  0
 32 31  2  0  0  0  0
 33 34  1  0  0  0  0
 33 31  1  0  0  0  0
 35 33  1  0  0  0  0
 36 37  1  0  0  0  0
 36 38  1  0  0  0  0
 39 41  1  0  0  0  0
 39 36  1  0  0  0  0
 40 39  1  0  0  0  0
 42 39  1  0  0  0  0
 42 44  1  0  0  0  0
 43 42  1  0  0  0  0
 45 42  1  0  0  0  0
 45 47  1  0  0  0  0
 46 45  1  0  0  0  0
 48 50  1  0  0  0  0
 48 45  1  0  0  0  0
 49 48  1  0  0  0  0
 51 48  1  0  0  0  0
 52 51  1  0  0  0  0
 53 51  1  0  0  0  0
 54 56  1  0  0  0  0
 54 51  1  0  0  0  0
 55 54  1  0  0  0  0
 57 58  1  0  0  0  0
 57 54  1  0  0  0  0
 59 57  1  0  0  0  0
 60 62  1  0  0  0  0
 60 57  1  0  0  0  0
 61 60  1  0  0  0  0
 63 65  1  0  0  0  0
 63 60  1  0  0  0  0
 64 63  1  0  0  0  0
 66 68  1  0  0  0  0
 66 67  1  0  0  0  0
 69 71  1  0  0  0  0
 70 69  1  0  0  0  0
 72 73  1  0  0  0  0
 72 69  1  0  0  0  0
 74 76  1  0  0  0  0
 74 72  1  0  0  0  0
 75 74  1  0  0  0  0
 76 78  1  0  0  0  0
 77 76  1  0  0  0  0
 79 81  1  0  0  0  0
 79 80  1  0  0  0  0
 79 76  1  0  0  0  0
 82 79  1  0  0  0  0
 83 82  1  0  0  0  0
 84 82  1  0  0  0  0
 85 86  1  0  0  0  0
 85 82  1  0  0  0  0
 87 85  1  0  0  0  0
 88 85  1  0  0  0  0
 89 88  1  0  0  0  0
 90 88  1  0  0  0  0
 91 88  1  0  0  0  0
 91 92  1  0  0  0  0
 93 91  1  0  0  0  0
 94 95  1  0  0  0  0
 97 99  1  0  0  0  0
 98 97  1  0  0  0  0
100 97  1  0  0  0  0
101103  1  0  0  0  0
101 33  1  0  0  0  0
102101  1  0  0  0  0
104105  1  0  0  0  0
104101  1  0  0  0  0
106104  1  0  0  0  0
107108  1  0  0  0  0
107104  1  0  0  0  0
109107  1  0  0  0  0
110107  1  0  0  0  0
110111  1  0  0  0  0
112110  1  0  0  0  0
113110  1  0  0  0  0
113115  1  0  0  0  0
114113  1  0  0  0  0
116117  1  0  0  0  0
116113  1  0  0  0  0
118116  1  0  0  0  0
119116  1  0  0  0  0
119120  1  0  0  0  0
121119  1  0  0  0  0
122124  1  0  0  0  0
122123  1  0  0  0  0
122119  1  0  0  0  0
125122  1  0  0  0  0
126125  1  0  0  0  0
127125  1  0  0  0  0
128125  1  0  0  0  0
128129  1  0  0  0  0
130128  1  0  0  0  0
131128  1  0  0  0  0
131132  1  0  0  0  0
131133  1  0  0  0  0
134131  1  0  0  0  0
135134  1  0  0  0  0
136134  1  0  0  0  0
137138  1  0  0  0  0
137134  1  0  0  0  0
139137  1  0  0  0  0
140139  1  0  0  0  0
141142  1  0  0  0  0
141143  1  0  0  0  0
141139  1  0  0  0  0
144141  1  0  0  0  0
145144  1  0  0  0  0
146144  1  0  0  0  0
147149  1  0  0  0  0
147144  1  0  0  0  0
148147  1  0  0  0  0
150147  1  0  0  0  0
151150  1  0  0  0  0
152150  1  0  0  0  0
153155  1  0  0  0  0
153154  1  0  0  0  0
153150  1  0  0  0  0
156153  1  0  0  0  0
157156  1  0  0  0  0
158156  1  0  0  0  0
159160  1  0  0  0  0
159156  1  0  0  0  0
161159  1  0  0  0  0
162159  1  0  0  0  0
163162  1  0  0  0  0
164162  1  0  0  0  0
165162  1  0  0  0  0
M  END
