PNPI2D
 OpenBabel02161614153D

140140  0  0  1  0  0  0  0  0999 V2000
   48.0700   27.8300   62.6100 C   0  0  2  0  0  0  0  0  0  0  0  0
   47.3300   28.4400   62.0400 H   0  0  0  0  0  0  0  0  0  0  0  0
   49.2700   28.5400   62.8500 O   0  0  0  0  0  0  0  0  0  0  0  0
   49.2200   29.1900   62.1500 H   0  0  0  0  0  0  0  0  0  0  0  0
   47.3100   27.5400   63.9300 C   0  0  2  0  0  0  0  0  0  0  0  0
   46.4400   26.8900   63.6900 H   0  0  0  0  0  0  0  0  0  0  0  0
   46.7800   28.7400   64.6100 O   0  0  0  0  0  0  0  0  0  0  0  0
   45.8300   30.1300   64.6800 P   0  0  0  0  0  0  0  0  0  0  0  0
   45.5400   30.3700   66.1700 O   0  0  0  0  0  0  0  0  0  0  0  0
   44.4500   29.8700   64.0800 O   0  0  0  0  0  0  0  0  0  0  0  0
   46.5800   31.3200   64.0800 O   0  0  0  0  0  0  0  0  0  0  0  0
   48.2800   26.6200   64.7600 C   0  0  1  0  0  0  0  0  0  0  0  0
   49.2700   27.0800   64.9500 H   0  0  0  0  0  0  0  0  0  0  0  0
   47.5800   26.4000   66.0100 O   0  0  0  0  0  0  0  0  0  0  0  0
   47.2600   27.3900   67.3600 P   0  0  2  0  0  0  0  0  0  0  0  0
   45.8700   28.2200   67.4700 O   0  0  0  0  0  0  0  0  0  0  0  0
   45.9300   29.1800   67.2100 H   0  0  0  0  0  0  0  0  0  0  0  0
   48.4400   28.2900   67.7200 O   0  0  0  0  0  0  0  0  0  0  0  0
   46.8800   26.3600   68.4000 O   0  0  0  0  0  0  0  0  0  0  0  0
   48.6800   25.2900   63.8700 C   0  0  2  0  0  0  0  0  0  0  0  0
   47.7800   24.7000   63.6500 H   0  0  0  0  0  0  0  0  0  0  0  0
   49.6200   24.4100   64.5100 O   0  0  0  0  0  0  0  0  0  0  0  0
   49.2500   24.0600   65.3200 H   0  0  0  0  0  0  0  0  0  0  0  0
   49.3400   25.6600   62.4900 C   0  0  1  0  0  0  0  0  0  0  0  0
   50.3200   26.1600   62.6400 H   0  0  0  0  0  0  0  0  0  0  0  0
   49.6800   24.4900   61.6800 O   0  0  0  0  0  0  0  0  0  0  0  0
   48.9400   23.8800   61.5900 H   0  0  0  0  0  0  0  0  0  0  0  0
   48.4000   26.5900   61.7200 C   0  0  2  0  0  0  0  0  0  0  0  0
   47.4600   26.0700   61.4700 H   0  0  0  0  0  0  0  0  0  0  0  0
   48.1600   27.5900   59.1900 P   0  0  2  0  0  0  0  0  0  0  0  0
   47.3100   28.6900   59.6500 O   0  0  0  0  0  0  0  0  0  0  0  0
   47.4800   26.4300   58.5600 O   0  0  0  0  0  0  0  0  0  0  0  0
   49.0300   27.0800   60.5100 O   0  0  0  0  0  0  0  0  0  0  0  0
   49.2400   28.2000   58.2100 O   0  0  0  0  0  0  0  0  0  0  0  0
   49.7200   29.5300   58.4400 C   0  0  0  0  0  0  0  0  0  0  0  0
   50.7400   29.4600   58.8500 H   0  0  0  0  0  0  0  0  0  0  0  0
   49.1000   30.1300   59.1500 H   0  0  0  0  0  0  0  0  0  0  0  0
   49.8000   30.3200   57.1100 C   0  0  2  0  0  0  0  0  0  0  0  0
   49.9600   31.3900   57.3600 H   0  0  0  0  0  0  0  0  0  0  0  0
   48.6300   30.1500   56.2900 O   0  0  0  0  0  0  0  0  0  0  0  0
   47.5200   30.6700   56.7200 C   0  0  0  0  0  0  0  0  0  0  0  0
   47.3900   31.4300   57.6700 O   0  0  0  0  0  0  0  0  0  0  0  0
   46.4000   30.2300   55.7600 C   0  0  0  0  0  0  0  0  0  0  0  0
   45.5600   30.9200   55.8400 H   0  0  0  0  0  0  0  0  0  0  0  0
   46.0400   29.2500   56.1300 H   0  0  0  0  0  0  0  0  0  0  0  0
   51.0200   29.8100   56.3100 C   0  0  0  0  0  0  0  0  0  0  0  0
   51.9000   29.9800   56.9700 H   0  0  0  0  0  0  0  0  0  0  0  0
   50.9600   28.7100   56.1600 H   0  0  0  0  0  0  0  0  0  0  0  0
   51.1700   30.5600   55.0900 O   0  0  0  0  0  0  0  0  0  0  0  0
   50.5600   30.0100   54.0400 C   0  0  0  0  0  0  0  0  0  0  0  0
   50.0100   28.9300   54.0200 O   0  0  0  0  0  0  0  0  0  0  0  0
   50.6900   30.9100   52.8100 C   0  0  0  0  0  0  0  0  0  0  0  0
   51.0600   31.9100   53.1000 H   0  0  0  0  0  0  0  0  0  0  0  0
   49.6700   31.0200   52.3800 H   0  0  0  0  0  0  0  0  0  0  0  0
   46.8100   30.1100   54.2700 C   0  0  0  0  0  0  0  0  0  0  0  0
   47.6700   29.4200   54.1800 H   0  0  0  0  0  0  0  0  0  0  0  0
   47.1200   31.1000   53.8600 H   0  0  0  0  0  0  0  0  0  0  0  0
   45.6700   29.5300   53.4400 C   0  0  0  0  0  0  0  0  0  0  0  0
   44.7400   30.1200   53.6000 H   0  0  0  0  0  0  0  0  0  0  0  0
   45.4500   28.5100   53.8400 H   0  0  0  0  0  0  0  0  0  0  0  0
   45.9400   29.5400   51.9300 C   0  0  0  0  0  0  0  0  0  0  0  0
   46.4100   30.4800   51.6100 H   0  0  0  0  0  0  0  0  0  0  0  0
   44.9700   29.3900   51.4000 H   0  0  0  0  0  0  0  0  0  0  0  0
   47.0100   28.5800   51.4600 C   0  0  0  0  0  0  0  0  0  0  0  0
   47.9100   28.4900   52.0800 H   0  0  0  0  0  0  0  0  0  0  0  0
   47.1600   28.5600   50.3600 H   0  0  0  0  0  0  0  0  0  0  0  0
   46.6600   27.2800   51.7200 C   0  0  0  0  0  0  0  0  0  0  0  0
   45.5000   27.3700   51.6300 H   0  0  0  0  0  0  0  0  0  0  0  0
   46.3600   27.1300   52.7700 H   0  0  0  0  0  0  0  0  0  0  0  0
   47.7700   26.2000   50.9300 C   0  0  0  0  0  0  0  0  0  0  0  0
   47.5100   25.0700   50.7500 H   0  0  0  0  0  0  0  0  0  0  0  0
   48.5100   25.7500   51.6100 H   0  0  0  0  0  0  0  0  0  0  0  0
   47.9300   26.2000   49.4400 C   0  0  0  0  0  0  0  0  0  0  0  0
   47.0600   26.5500   48.8600 H   0  0  0  0  0  0  0  0  0  0  0  0
   48.7800   25.4800   48.7700 C   0  0  0  0  0  0  0  0  0  0  0  0
   48.6500   25.5100   47.6900 H   0  0  0  0  0  0  0  0  0  0  0  0
   49.7400   24.5500   49.4400 C   0  0  0  0  0  0  0  0  0  0  0  0
   49.6400   24.4200   50.5500 H   0  0  0  0  0  0  0  0  0  0  0  0
   50.7100   25.0400   49.2500 H   0  0  0  0  0  0  0  0  0  0  0  0
   49.4500   23.2600   48.7400 C   0  0  0  0  0  0  0  0  0  0  0  0
   49.0500   22.4700   49.4100 H   0  0  0  0  0  0  0  0  0  0  0  0
   49.9000   22.9100   47.5200 C   0  0  0  0  0  0  0  0  0  0  0  0
   49.9500   21.8200   47.3500 H   0  0  0  0  0  0  0  0  0  0  0  0
   50.8200   23.7300   46.6300 C   0  0  0  0  0  0  0  0  0  0  0  0
   51.8700   23.8600   47.0300 H   0  0  0  0  0  0  0  0  0  0  0  0
   50.4400   24.7500   46.5700 H   0  0  0  0  0  0  0  0  0  0  0  0
   50.9600   23.0200   45.3000 C   0  0  0  0  0  0  0  0  0  0  0  0
   51.1300   21.9200   45.3300 H   0  0  0  0  0  0  0  0  0  0  0  0
   50.9600   23.6100   44.1100 C   0  0  0  0  0  0  0  0  0  0  0  0
   50.9800   22.9900   43.2000 H   0  0  0  0  0  0  0  0  0  0  0  0
   50.8200   25.0700   43.8800 C   0  0  0  0  0  0  0  0  0  0  0  0
   50.7700   25.6900   44.8000 H   0  0  0  0  0  0  0  0  0  0  0  0
   49.9000   25.2700   43.3000 H   0  0  0  0  0  0  0  0  0  0  0  0
   52.0300   25.5400   43.1000 C   0  0  0  0  0  0  0  0  0  0  0  0
   52.9900   25.0500   43.3800 H   0  0  0  0  0  0  0  0  0  0  0  0
   51.9000   25.4400   42.0100 H   0  0  0  0  0  0  0  0  0  0  0  0
   52.1100   26.6200   43.3500 H   0  0  0  0  0  0  0  0  0  0  0  0
   51.6500   30.2500   51.7900 C   0  0  0  0  0  0  0  0  0  0  0  0
   51.4900   29.1500   51.7600 H   0  0  0  0  0  0  0  0  0  0  0  0
   52.6900   30.4200   52.1600 H   0  0  0  0  0  0  0  0  0  0  0  0
   51.5200   30.7800   50.3500 C   0  0  0  0  0  0  0  0  0  0  0  0
   52.3700   30.4000   49.7400 H   0  0  0  0  0  0  0  0  0  0  0  0
   51.6000   31.8900   50.3800 H   0  0  0  0  0  0  0  0  0  0  0  0
   50.2100   30.3500   49.6700 C   0  0  0  0  0  0  0  0  0  0  0  0
   49.4000   31.0400   49.9900 H   0  0  0  0  0  0  0  0  0  0  0  0
   49.9300   29.3200   50.0100 H   0  0  0  0  0  0  0  0  0  0  0  0
   50.2600   30.3200   48.1300 C   0  0  0  0  0  0  0  0  0  0  0  0
   50.8500   29.4500   47.7700 H   0  0  0  0  0  0  0  0  0  0  0  0
   50.8000   31.2400   47.8200 H   0  0  0  0  0  0  0  0  0  0  0  0
   48.8400   30.3200   47.5100 C   0  0  0  0  0  0  0  0  0  0  0  0
   48.9000   30.7700   46.5000 H   0  0  0  0  0  0  0  0  0  0  0  0
   48.1900   30.9600   48.1400 H   0  0  0  0  0  0  0  0  0  0  0  0
   48.1800   28.9200   47.3600 C   0  0  0  0  0  0  0  0  0  0  0  0
   48.1000   28.4300   48.3500 H   0  0  0  0  0  0  0  0  0  0  0  0
   48.8700   28.3200   46.7400 H   0  0  0  0  0  0  0  0  0  0  0  0
   46.7600   28.9400   46.7400 C   0  0  0  0  0  0  0  0  0  0  0  0
   46.7100   29.7700   46.0000 H   0  0  0  0  0  0  0  0  0  0  0  0
   46.0200   29.1700   47.5400 H   0  0  0  0  0  0  0  0  0  0  0  0
   46.3300   27.6300   46.0300 C   0  0  0  0  0  0  0  0  0  0  0  0
   45.3400   27.7400   45.5200 H   0  0  0  0  0  0  0  0  0  0  0  0
   46.2000   26.8300   46.7800 H   0  0  0  0  0  0  0  0  0  0  0  0
   47.3100   27.1700   44.9500 C   0  0  0  0  0  0  0  0  0  0  0  0
   46.9800   26.2100   44.5100 H   0  0  0  0  0  0  0  0  0  0  0  0
   48.3100   26.9500   45.4000 H   0  0  0  0  0  0  0  0  0  0  0  0
   47.4300   28.2000   43.8200 C   0  0  0  0  0  0  0  0  0  0  0  0
   47.6600   29.2000   44.2400 H   0  0  0  0  0  0  0  0  0  0  0  0
   46.4500   28.2800   43.3000 H   0  0  0  0  0  0  0  0  0  0  0  0
   48.5700   27.8600   42.8600 C   0  0  0  0  0  0  0  0  0  0  0  0
   49.3300   27.2900   43.4300 H   0  0  0  0  0  0  0  0  0  0  0  0
   49.0400   28.7800   42.4700 H   0  0  0  0  0  0  0  0  0  0  0  0
   48.1400   27.0300   41.6800 C   0  0  0  0  0  0  0  0  0  0  0  0
   47.3500   27.5800   41.1100 H   0  0  0  0  0  0  0  0  0  0  0  0
   47.8000   26.0800   42.1400 H   0  0  0  0  0  0  0  0  0  0  0  0
   49.2100   26.5400   40.7900 C   0  0  0  0  0  0  0  0  0  0  0  0
   48.9000   25.7400   40.0800 H   0  0  0  0  0  0  0  0  0  0  0  0
   49.9800   26.0900   41.4400 H   0  0  0  0  0  0  0  0  0  0  0  0
   49.8100   27.6900   40.0600 C   0  0  0  0  0  0  0  0  0  0  0  0
   50.7300   27.1600   39.8800 H   0  0  0  0  0  0  0  0  0  0  0  0
   49.3200   27.9600   39.1000 H   0  0  0  0  0  0  0  0  0  0  0  0
   50.1000   28.5800   40.6400 H   0  0  0  0  0  0  0  0  0  0  0  0
  1  2  1  6  0  0  0
  1  3  1  0  0  0  0
  1  5  1  0  0  0  0
  4  3  1  0  0  0  0
  5  6  1  6  0  0  0
  5  7  1  0  0  0  0
  5 12  1  0  0  0  0
  7  8  1  0  0  0  0
  8  9  1  0  0  0  0
 10  8  2  0  0  0  0
 11  8  1  0  0  0  0
 12 13  1  1  0  0  0
 12 14  1  0  0  0  0
 15 14  1  6  0  0  0
 15 16  1  0  0  0  0
 15 18  2  0  0  0  0
 15 19  1  0  0  0  0
 17 16  1  0  0  0  0
 20 21  1  6  0  0  0
 20 22  1  0  0  0  0
 20 12  1  0  0  0  0
 22 23  1  0  0  0  0
 24 25  1  1  0  0  0
 24 20  1  0  0  0  0
 26 24  1  0  0  0  0
 27 26  1  0  0  0  0
 28 29  1  6  0  0  0
 28 24  1  0  0  0  0
 28  1  1  0  0  0  0
 30 34  1  6  0  0  0
 30 31  1  0  0  0  0
 30 33  1  0  0  0  0
 32 30  2  0  0  0  0
 33 28  1  0  0  0  0
 34 35  1  0  0  0  0
 35 36  1  0  0  0  0
 35 37  1  0  0  0  0
 38 39  1  1  0  0  0
 38 35  1  0  0  0  0
 40 41  1  0  0  0  0
 40 38  1  0  0  0  0
 41 42  2  0  0  0  0
 43 44  1  0  0  0  0
 43 45  1  0  0  0  0
 43 41  1  0  0  0  0
 46 47  1  0  0  0  0
 46 38  1  0  0  0  0
 48 46  1  0  0  0  0
 49 46  1  0  0  0  0
 50 49  1  0  0  0  0
 51 50  2  0  0  0  0
 52 53  1  0  0  0  0
 52 50  1  0  0  0  0
 54 52  1  0  0  0  0
 55 43  1  0  0  0  0
 56 55  1  0  0  0  0
 57 55  1  0  0  0  0
 58 59  1  0  0  0  0
 58 60  1  0  0  0  0
 58 55  1  0  0  0  0
 61 58  1  0  0  0  0
 62 61  1  0  0  0  0
 63 61  1  0  0  0  0
 64 67  1  0  0  0  0
 64 61  1  0  0  0  0
 64 65  1  0  0  0  0
 66 64  1  0  0  0  0
 67 69  1  0  0  0  0
 68 67  1  0  0  0  0
 70 72  1  0  0  0  0
 70 67  1  0  0  0  0
 71 70  1  0  0  0  0
 73 70  1  0  0  0  0
 74 73  1  0  0  0  0
 75 73  1  0  0  0  0
 75 77  1  0  0  0  0
 76 75  1  0  0  0  0
 77 78  1  0  0  0  0
 79 77  1  0  0  0  0
 80 81  1  0  0  0  0
 80 77  1  0  0  0  0
 82 80  1  0  0  0  0
 83 82  1  0  0  0  0
 84 85  1  0  0  0  0
 84 82  1  0  0  0  0
 86 84  1  0  0  0  0
 87 88  1  0  0  0  0
 87 84  1  0  0  0  0
 89 87  2  0  0  0  0
 90 89  1  0  0  0  0
 91 89  1  0  0  0  0
 91 92  1  0  0  0  0
 93 91  1  0  0  0  0
 94 97  1  0  0  0  0
 94 95  1  0  0  0  0
 94 91  1  0  0  0  0
 96 94  1  0  0  0  0
 98100  1  0  0  0  0
 98 52  1  0  0  0  0
 99 98  1  0  0  0  0
101103  1  0  0  0  0
101 98  1  0  0  0  0
102101  1  0  0  0  0
104105  1  0  0  0  0
104106  1  0  0  0  0
104101  1  0  0  0  0
107104  1  0  0  0  0
108107  1  0  0  0  0
109107  1  0  0  0  0
110107  1  0  0  0  0
110112  1  0  0  0  0
111110  1  0  0  0  0
113110  1  0  0  0  0
113114  1  0  0  0  0
115113  1  0  0  0  0
116113  1  0  0  0  0
116118  1  0  0  0  0
117116  1  0  0  0  0
119116  1  0  0  0  0
119121  1  0  0  0  0
120119  1  0  0  0  0
122124  1  0  0  0  0
122119  1  0  0  0  0
123122  1  0  0  0  0
125126  1  0  0  0  0
125122  1  0  0  0  0
127125  1  0  0  0  0
128129  1  0  0  0  0
128125  1  0  0  0  0
130128  1  0  0  0  0
131133  1  0  0  0  0
131128  1  0  0  0  0
132131  1  0  0  0  0
134136  1  0  0  0  0
134131  1  0  0  0  0
135134  1  0  0  0  0
137140  1  0  0  0  0
137134  1  0  0  0  0
138137  1  0  0  0  0
139137  1  0  0  0  0
M  END
