TXCL2
 OpenBabel02161614153D

224219  0  0  1  0  0  0  0  0999 V2000
   78.3600   14.6300   57.4900 C   0  0  0  0  0  0  0  0  0  0  0  0
   77.5300   14.3000   56.8000 H   0  0  0  0  0  0  0  0  0  0  0  0
   78.6500   15.6700   57.3300 H   0  0  0  0  0  0  0  0  0  0  0  0
   81.0600   14.2700   56.8000 P   0  0  2  0  0  0  0  0  0  0  0  0
   81.7900   12.9900   56.8700 O   0  0  0  0  0  0  0  0  0  0  0  0
   81.5100   15.3100   57.7000 O   0  0  0  0  0  0  0  0  0  0  0  0
   79.5200   13.9900   57.0600 O   0  0  0  0  0  0  0  0  0  0  0  0
   81.1600   14.4300   55.2900 O   0  0  0  0  0  0  0  0  0  0  0  0
   81.3900   13.2200   54.5000 C   0  0  0  0  0  0  0  0  0  0  0  0
   82.4700   13.2200   54.2200 H   0  0  0  0  0  0  0  0  0  0  0  0
   81.1600   12.1900   54.9400 H   0  0  0  0  0  0  0  0  0  0  0  0
   77.8000   14.3300   58.9500 C   0  0  1  0  0  0  0  0  0  0  0  0
   77.4600   13.2800   59.0600 H   0  0  0  0  0  0  0  0  0  0  0  0
   78.7800   14.5800   59.9200 O   0  0  0  0  0  0  0  0  0  0  0  0
   79.5700   14.1600   59.5600 H   0  0  0  0  0  0  0  0  0  0  0  0
   76.6100   15.2100   59.3100 C   0  0  0  0  0  0  0  0  0  0  0  0
   76.9900   16.2500   59.4100 H   0  0  0  0  0  0  0  0  0  0  0  0
   76.1500   14.9200   60.2900 H   0  0  0  0  0  0  0  0  0  0  0  0
   74.6100   16.2400   58.1800 P   0  0  1  0  0  0  0  0  0  0  0  0
   73.7800   16.0700   59.3800 O   0  0  0  0  0  0  0  0  0  0  0  0
   75.3500   17.5400   58.0700 O   0  0  0  0  0  0  0  0  0  0  0  0
   75.6800   15.0900   58.2500 O   0  0  0  0  0  0  0  0  0  0  0  0
   73.8800   15.8500   56.8400 O   0  0  0  0  0  0  0  0  0  0  0  0
   74.5700   15.2100   55.7500 C   0  0  0  0  0  0  0  0  0  0  0  0
   73.7900   14.7800   55.0800 H   0  0  0  0  0  0  0  0  0  0  0  0
   75.1600   14.3400   56.0900 H   0  0  0  0  0  0  0  0  0  0  0  0
   75.4700   16.1700   54.9100 C   0  0  2  0  0  0  0  0  0  0  0  0
   76.4400   16.2500   55.4300 H   0  0  0  0  0  0  0  0  0  0  0  0
   74.9200   17.4800   54.9400 O   0  0  0  0  0  0  0  0  0  0  0  0
   75.4900   18.4200   54.2900 C   0  0  0  0  0  0  0  0  0  0  0  0
   76.6600   18.4500   53.9600 O   0  0  0  0  0  0  0  0  0  0  0  0
   74.4800   19.5300   53.9900 C   0  0  0  0  0  0  0  0  0  0  0  0
   74.3800   19.9900   54.9800 H   0  0  0  0  0  0  0  0  0  0  0  0
   73.5000   19.1600   53.6700 H   0  0  0  0  0  0  0  0  0  0  0  0
   75.6200   15.6500   53.4400 C   0  0  0  0  0  0  0  0  0  0  0  0
   76.2000   14.7000   53.4600 H   0  0  0  0  0  0  0  0  0  0  0  0
   76.1900   16.3600   52.8200 H   0  0  0  0  0  0  0  0  0  0  0  0
   74.3600   15.3200   52.8200 O   0  0  0  0  0  0  0  0  0  0  0  0
   73.7800   16.2500   52.1100 C   0  0  0  0  0  0  0  0  0  0  0  0
   74.1600   17.3800   51.8700 O   0  0  0  0  0  0  0  0  0  0  0  0
   72.5500   15.6800   51.5200 C   0  0  0  0  0  0  0  0  0  0  0  0
   72.3700   14.6800   52.0000 H   0  0  0  0  0  0  0  0  0  0  0  0
   72.6900   15.4700   50.4500 H   0  0  0  0  0  0  0  0  0  0  0  0
   80.4900   13.3200   53.2900 C   0  0  2  0  0  0  0  0  0  0  0  0
   80.9700   12.8700   52.4000 H   0  0  0  0  0  0  0  0  0  0  0  0
   80.2100   14.6800   53.0000 O   0  0  0  0  0  0  0  0  0  0  0  0
   81.2400   15.4500   52.6900 C   0  0  0  0  0  0  0  0  0  0  0  0
   82.4100   15.1300   52.5900 O   0  0  0  0  0  0  0  0  0  0  0  0
   80.7000   16.8100   52.3800 C   0  0  0  0  0  0  0  0  0  0  0  0
   81.5400   17.3800   51.9100 H   0  0  0  0  0  0  0  0  0  0  0  0
   80.5300   17.3100   53.3600 H   0  0  0  0  0  0  0  0  0  0  0  0
   79.1700   12.5200   53.5400 C   0  0  0  0  0  0  0  0  0  0  0  0
   79.3900   11.4300   53.6000 H   0  0  0  0  0  0  0  0  0  0  0  0
   78.7900   12.7600   54.5500 H   0  0  0  0  0  0  0  0  0  0  0  0
   78.1600   12.8600   52.5600 O   0  0  0  0  0  0  0  0  0  0  0  0
   78.1400   12.1400   51.4500 C   0  0  0  0  0  0  0  0  0  0  0  0
   78.7300   11.1000   51.2700 O   0  0  0  0  0  0  0  0  0  0  0  0
   77.3000   12.7600   50.3600 C   0  0  0  0  0  0  0  0  0  0  0  0
   76.9400   13.7800   50.5900 H   0  0  0  0  0  0  0  0  0  0  0  0
   76.4300   12.0800   50.1800 H   0  0  0  0  0  0  0  0  0  0  0  0
   74.9900   20.5100   52.9200 C   0  0  0  0  0  0  0  0  0  0  0  0
   75.6400   19.9800   52.1800 H   0  0  0  0  0  0  0  0  0  0  0  0
   75.6700   21.2400   53.4100 H   0  0  0  0  0  0  0  0  0  0  0  0
   73.9000   21.1200   52.0400 C   0  0  0  0  0  0  0  0  0  0  0  0
   73.1600   21.7900   52.5700 H   0  0  0  0  0  0  0  0  0  0  0  0
   73.3100   20.3800   51.4900 H   0  0  0  0  0  0  0  0  0  0  0  0
   74.6700   21.8500   50.9600 C   0  0  0  0  0  0  0  0  0  0  0  0
   75.7300   21.6900   50.8100 H   0  0  0  0  0  0  0  0  0  0  0  0
   74.6100   22.6600   51.6000 H   0  0  0  0  0  0  0  0  0  0  0  0
   74.0500   21.9800   49.6200 C   0  0  0  0  0  0  0  0  0  0  0  0
   73.0000   22.0800   49.9400 H   0  0  0  0  0  0  0  0  0  0  0  0
   73.8200   21.0300   49.2200 H   0  0  0  0  0  0  0  0  0  0  0  0
   74.8400   22.6800   48.4200 C   0  0  0  0  0  0  0  0  0  0  0  0
   75.8700   22.4100   48.3000 H   0  0  0  0  0  0  0  0  0  0  0  0
   75.3400   23.6000   48.6700 H   0  0  0  0  0  0  0  0  0  0  0  0
   74.1500   22.9700   47.0500 C   0  0  0  0  0  0  0  0  0  0  0  0
   74.6100   23.7000   46.3600 H   0  0  0  0  0  0  0  0  0  0  0  0
   73.3300   23.6500   47.1200 H   0  0  0  0  0  0  0  0  0  0  0  0
   73.7900   21.6100   46.6100 C   0  0  0  0  0  0  0  0  0  0  0  0
   74.4400   20.9200   47.0900 H   0  0  0  0  0  0  0  0  0  0  0  0
   72.8800   21.0400   45.8600 C   0  0  0  0  0  0  0  0  0  0  0  0
   72.8200   20.0100   45.5700 H   0  0  0  0  0  0  0  0  0  0  0  0
   71.8700   21.6400   45.1600 C   0  0  0  0  0  0  0  0  0  0  0  0
   71.3300   21.9600   46.0500 H   0  0  0  0  0  0  0  0  0  0  0  0
   70.8500   21.9200   45.2300 H   0  0  0  0  0  0  0  0  0  0  0  0
   71.9100   22.0000   43.8800 C   0  0  0  0  0  0  0  0  0  0  0  0
   72.6000   22.8400   43.7700 H   0  0  0  0  0  0  0  0  0  0  0  0
   70.8300   22.0800   43.5400 H   0  0  0  0  0  0  0  0  0  0  0  0
   72.4400   21.0900   42.9600 C   0  0  0  0  0  0  0  0  0  0  0  0
   73.4000   20.7400   43.3000 H   0  0  0  0  0  0  0  0  0  0  0  0
   72.8400   21.7500   42.1500 H   0  0  0  0  0  0  0  0  0  0  0  0
   71.1800   20.2300   42.6100 C   0  0  0  0  0  0  0  0  0  0  0  0
   71.0600   19.4800   43.4000 H   0  0  0  0  0  0  0  0  0  0  0  0
   71.7000   19.9300   41.7300 H   0  0  0  0  0  0  0  0  0  0  0  0
   69.7100   20.4300   42.0700 C   0  0  0  0  0  0  0  0  0  0  0  0
   69.1900   21.2600   42.5600 H   0  0  0  0  0  0  0  0  0  0  0  0
   69.2600   19.4300   42.1400 H   0  0  0  0  0  0  0  0  0  0  0  0
   69.4300   20.7100   40.6800 C   0  0  0  0  0  0  0  0  0  0  0  0
   70.5100   20.6600   40.3900 H   0  0  0  0  0  0  0  0  0  0  0  0
   69.0700   21.6600   40.5400 H   0  0  0  0  0  0  0  0  0  0  0  0
   68.7300   20.3800   39.9300 H   0  0  0  0  0  0  0  0  0  0  0  0
   71.4700   16.7400   51.8300 C   0  0  0  0  0  0  0  0  0  0  0  0
   71.2500   16.7300   52.8200 H   0  0  0  0  0  0  0  0  0  0  0  0
   70.4400   16.6100   51.5600 H   0  0  0  0  0  0  0  0  0  0  0  0
   71.3800   17.9900   51.1300 C   0  0  0  0  0  0  0  0  0  0  0  0
   71.2800   17.6600   50.0700 H   0  0  0  0  0  0  0  0  0  0  0  0
   72.2500   18.5900   51.3100 H   0  0  0  0  0  0  0  0  0  0  0  0
   70.3100   18.9500   51.5300 C   0  0  0  0  0  0  0  0  0  0  0  0
   69.8200   19.1700   52.4800 H   0  0  0  0  0  0  0  0  0  0  0  0
   69.3600   18.3600   51.1100 H   0  0  0  0  0  0  0  0  0  0  0  0
   70.8800   20.3500   50.7900 C   0  0  0  0  0  0  0  0  0  0  0  0
   71.5900   21.0900   50.6800 H   0  0  0  0  0  0  0  0  0  0  0  0
   70.1700   21.3100   51.0300 H   0  0  0  0  0  0  0  0  0  0  0  0
   71.2000   19.8300   49.0100 C   0  0  0  0  0  0  0  0  0  0  0  0
   71.9500   19.2200   48.6800 H   0  0  0  0  0  0  0  0  0  0  0  0
   71.4400   20.9000   48.5100 H   0  0  0  0  0  0  0  0  0  0  0  0
   69.8600   18.4900   48.1000 C   0  0  0  0  0  0  0  0  0  0  0  0
   68.7800   18.9300   47.7300 H   0  0  0  0  0  0  0  0  0  0  0  0
   69.0000   18.1800   48.7300 H   0  0  0  0  0  0  0  0  0  0  0  0
   69.7300   17.8900   46.7100 C   0  0  0  0  0  0  0  0  0  0  0  0
   70.6300   18.0900   46.1400 H   0  0  0  0  0  0  0  0  0  0  0  0
   69.0700   17.1000   46.0500 C   0  0  0  0  0  0  0  0  0  0  0  0
   69.7500   16.5200   45.5100 H   0  0  0  0  0  0  0  0  0  0  0  0
   67.9900   16.3600   46.5100 C   0  0  0  0  0  0  0  0  0  0  0  0
   67.8000   16.5600   47.5700 H   0  0  0  0  0  0  0  0  0  0  0  0
   68.3300   15.3700   46.2000 H   0  0  0  0  0  0  0  0  0  0  0  0
   66.9300   16.8500   45.8400 C   0  0  0  0  0  0  0  0  0  0  0  0
   66.6600   17.8100   46.4000 H   0  0  0  0  0  0  0  0  0  0  0  0
   66.1100   16.1400   46.0300 H   0  0  0  0  0  0  0  0  0  0  0  0
   67.3800   16.8600   44.3600 C   0  0  0  0  0  0  0  0  0  0  0  0
   67.1800   15.9600   43.7700 H   0  0  0  0  0  0  0  0  0  0  0  0
   68.2000   17.5400   44.0000 H   0  0  0  0  0  0  0  0  0  0  0  0
   66.4900   17.5800   43.8100 C   0  0  0  0  0  0  0  0  0  0  0  0
   66.1000   18.1800   44.6900 H   0  0  0  0  0  0  0  0  0  0  0  0
   65.5600   16.9200   43.9900 H   0  0  0  0  0  0  0  0  0  0  0  0
   66.9600   18.4300   42.3500 C   0  0  0  0  0  0  0  0  0  0  0  0
   67.4200   19.4400   42.2300 H   0  0  0  0  0  0  0  0  0  0  0  0
   66.1800   19.1500   41.9300 H   0  0  0  0  0  0  0  0  0  0  0  0
   67.5800   17.6900   41.4100 C   0  0  0  0  0  0  0  0  0  0  0  0
   68.3100   17.1900   41.9600 H   0  0  0  0  0  0  0  0  0  0  0  0
   67.7000   18.2800   40.4600 H   0  0  0  0  0  0  0  0  0  0  0  0
   66.9100   16.8500   41.3200 H   0  0  0  0  0  0  0  0  0  0  0  0
   79.3800   16.7200   51.5100 C   0  0  0  0  0  0  0  0  0  0  0  0
   78.6000   16.2700   52.1400 H   0  0  0  0  0  0  0  0  0  0  0  0
   79.5800   16.1400   50.5900 H   0  0  0  0  0  0  0  0  0  0  0  0
   78.5800   17.9700   51.1500 C   0  0  0  0  0  0  0  0  0  0  0  0
   78.9800   18.5600   50.3700 H   0  0  0  0  0  0  0  0  0  0  0  0
   78.5100   18.6000   52.0300 H   0  0  0  0  0  0  0  0  0  0  0  0
   77.2500   17.9700   50.4800 C   0  0  0  0  0  0  0  0  0  0  0  0
   76.8700   19.0200   50.6200 H   0  0  0  0  0  0  0  0  0  0  0  0
   76.6000   17.3200   51.0600 H   0  0  0  0  0  0  0  0  0  0  0  0
   77.3300   17.6500   49.0000 C   0  0  0  0  0  0  0  0  0  0  0  0
   77.7300   16.6200   48.8700 H   0  0  0  0  0  0  0  0  0  0  0  0
   77.9400   18.3500   48.3900 H   0  0  0  0  0  0  0  0  0  0  0  0
   75.9300   17.7600   48.4700 C   0  0  0  0  0  0  0  0  0  0  0  0
   75.6900   18.8600   48.4600 H   0  0  0  0  0  0  0  0  0  0  0  0
   75.2500   17.3100   49.2300 H   0  0  0  0  0  0  0  0  0  0  0  0
   75.7800   17.0500   47.1600 C   0  0  0  0  0  0  0  0  0  0  0  0
   75.8500   15.9300   47.1900 H   0  0  0  0  0  0  0  0  0  0  0  0
   76.3900   17.4600   46.3100 H   0  0  0  0  0  0  0  0  0  0  0  0
   74.5000   17.6700   46.9300 C   0  0  0  0  0  0  0  0  0  0  0  0
   73.7200   17.7000   47.7300 H   0  0  0  0  0  0  0  0  0  0  0  0
   74.0200   17.4100   45.8300 C   0  0  0  0  0  0  0  0  0  0  0  0
   72.9800   17.7500   45.9700 H   0  0  0  0  0  0  0  0  0  0  0  0
   74.6200   16.4200   44.7300 C   0  0  0  0  0  0  0  0  0  0  0  0
   75.6700   16.2500   44.7700 H   0  0  0  0  0  0  0  0  0  0  0  0
   74.7400   17.3000   44.0300 H   0  0  0  0  0  0  0  0  0  0  0  0
   73.9300   14.8000   44.0700 C   0  0  0  0  0  0  0  0  0  0  0  0
   74.2200   14.1600   44.9300 H   0  0  0  0  0  0  0  0  0  0  0  0
   74.6000   14.6200   43.2800 H   0  0  0  0  0  0  0  0  0  0  0  0
   72.1800   14.3200   43.4200 C   0  0  0  0  0  0  0  0  0  0  0  0
   71.2600   14.3500   44.1100 H   0  0  0  0  0  0  0  0  0  0  0  0
   72.1000   13.2900   43.3200 H   0  0  0  0  0  0  0  0  0  0  0  0
   71.2200   15.1800   42.3500 C   0  0  0  0  0  0  0  0  0  0  0  0
   71.8000   15.3500   41.4300 H   0  0  0  0  0  0  0  0  0  0  0  0
   70.8800   16.2000   42.7200 H   0  0  0  0  0  0  0  0  0  0  0  0
   69.8700   15.3800   42.0100 C   0  0  0  0  0  0  0  0  0  0  0  0
   70.0000   16.2200   41.2200 H   0  0  0  0  0  0  0  0  0  0  0  0
   69.2500   15.6700   42.9200 H   0  0  0  0  0  0  0  0  0  0  0  0
   69.9400   14.0400   41.4900 C   0  0  0  0  0  0  0  0  0  0  0  0
   70.1400   13.3200   42.3200 H   0  0  0  0  0  0  0  0  0  0  0  0
   68.9400   13.9600   41.1200 H   0  0  0  0  0  0  0  0  0  0  0  0
   70.7500   13.9300   40.7000 H   0  0  0  0  0  0  0  0  0  0  0  0
   78.1800   12.8000   49.1000 C   0  0  0  0  0  0  0  0  0  0  0  0
   78.5800   11.7800   48.9000 H   0  0  0  0  0  0  0  0  0  0  0  0
   79.0400   13.5000   49.2500 H   0  0  0  0  0  0  0  0  0  0  0  0
   77.4400   13.2900   47.8600 C   0  0  0  0  0  0  0  0  0  0  0  0
   77.2200   14.3700   47.9500 H   0  0  0  0  0  0  0  0  0  0  0  0
   76.4800   12.7400   47.8100 H   0  0  0  0  0  0  0  0  0  0  0  0
   78.3100   13.0500   46.6200 C   0  0  0  0  0  0  0  0  0  0  0  0
   77.6500   12.7900   45.7600 H   0  0  0  0  0  0  0  0  0  0  0  0
   78.9500   12.1800   46.8700 H   0  0  0  0  0  0  0  0  0  0  0  0
   79.2100   14.2400   46.2500 C   0  0  0  0  0  0  0  0  0  0  0  0
   80.2100   13.9300   45.8600 H   0  0  0  0  0  0  0  0  0  0  0  0
   79.4000   14.8100   47.1900 H   0  0  0  0  0  0  0  0  0  0  0  0
   78.5700   15.1800   45.2100 C   0  0  0  0  0  0  0  0  0  0  0  0
   77.5900   15.4700   45.6100 H   0  0  0  0  0  0  0  0  0  0  0  0
   78.3600   14.6700   44.2300 H   0  0  0  0  0  0  0  0  0  0  0  0
   79.4500   16.3900   44.9100 C   0  0  0  0  0  0  0  0  0  0  0  0
   80.2700   15.8400   44.4200 H   0  0  0  0  0  0  0  0  0  0  0  0
   79.9600   16.8500   45.7700 H   0  0  0  0  0  0  0  0  0  0  0  0
   78.8400   17.5300   44.1100 C   0  0  0  0  0  0  0  0  0  0  0  0
   78.7200   18.4500   44.6400 H   0  0  0  0  0  0  0  0  0  0  0  0
   78.7700   17.6400   42.7900 C   0  0  0  0  0  0  0  0  0  0  0  0
   78.4400   18.5500   42.2400 H   0  0  0  0  0  0  0  0  0  0  0  0
   79.3300   16.5600   41.9800 C   0  0  0  0  0  0  0  0  0  0  0  0
   80.0500   15.8000   42.3000 H   0  0  0  0  0  0  0  0  0  0  0  0
   79.7800   17.0300   41.1100 H   0  0  0  0  0  0  0  0  0  0  0  0
   78.1100   15.8200   41.6400 C   0  0  0  0  0  0  0  0  0  0  0  0
   77.3700   15.4600   42.3000 H   0  0  0  0  0  0  0  0  0  0  0  0
   78.5300   14.8400   41.2000 H   0  0  0  0  0  0  0  0  0  0  0  0
   77.1100   16.8900   41.0200 C   0  0  0  0  0  0  0  0  0  0  0  0
   78.0900   16.4700   40.5700 H   0  0  0  0  0  0  0  0  0  0  0  0
   77.2900   17.7800   40.3700 H   0  0  0  0  0  0  0  0  0  0  0  0
   75.5400   16.4600   40.6500 C   0  0  0  0  0  0  0  0  0  0  0  0
   75.0700   15.9700   41.4600 H   0  0  0  0  0  0  0  0  0  0  0  0
   75.2700   15.3600   40.4600 H   0  0  0  0  0  0  0  0  0  0  0  0
   74.6800   17.2100   39.4800 C   0  0  0  0  0  0  0  0  0  0  0  0
   74.6200   17.1700   38.3400 H   0  0  0  0  0  0  0  0  0  0  0  0
   74.8400   18.2400   39.4000 H   0  0  0  0  0  0  0  0  0  0  0  0
   73.5400   16.4300   39.0500 C   0  0  0  0  0  0  0  0  0  0  0  0
   73.6000   16.6800   39.9400 H   0  0  0  0  0  0  0  0  0  0  0  0
   73.2000   15.5200   39.5700 H   0  0  0  0  0  0  0  0  0  0  0  0
   72.7800   16.9000   38.3800 H   0  0  0  0  0  0  0  0  0  0  0  0
  1 12  1  0  0  0  0
  2  1  1  0  0  0  0
  3  1  1  0  0  0  0
  4  8  1  6  0  0  0
  4  5  2  0  0  0  0
  4  7  1  0  0  0  0
  4  6  1  0  0  0  0
  7  1  1  0  0  0  0
  9 11  1  0  0  0  0
  9  8  1  0  0  0  0
 10  9  1  0  0  0  0
 12 13  1  1  0  0  0
 12 16  1  0  0  0  0
 12 14  1  0  0  0  0
 15 14  1  0  0  0  0
 16 17  1  0  0  0  0
 16 18  1  0  0  0  0
 19 23  1  6  0  0  0
 19 22  1  0  0  0  0
 19 20  1  0  0  0  0
 21 19  2  0  0  0  0
 22 16  1  0  0  0  0
 24 26  1  0  0  0  0
 24 23  1  0  0  0  0
 25 24  1  0  0  0  0
 27 29  1  0  0  0  0
 27 28  1  1  0  0  0
 27 24  1  0  0  0  0
 30 29  1  0  0  0  0
 31 30  2  0  0  0  0
 32 30  1  0  0  0  0
 32 33  1  0  0  0  0
 34 32  1  0  0  0  0
 35 36  1  0  0  0  0
 35 27  1  0  0  0  0
 37 35  1  0  0  0  0
 38 35  1  0  0  0  0
 39 38  1  0  0  0  0
 40 39  2  0  0  0  0
 41102  1  0  0  0  0
 41 42  1  0  0  0  0
 41 39  1  0  0  0  0
 43 41  1  0  0  0  0
 44 45  1  6  0  0  0
 44 52  1  0  0  0  0
 44  9  1  0  0  0  0
 46 44  1  0  0  0  0
 47 46  1  0  0  0  0
 48 47  2  0  0  0  0
 49 47  1  0  0  0  0
 49 51  1  0  0  0  0
 50 49  1  0  0  0  0
 52 53  1  0  0  0  0
 52 54  1  0  0  0  0
 55 52  1  0  0  0  0
 56 55  1  0  0  0  0
 57 56  2  0  0  0  0
 58 59  1  0  0  0  0
 58 56  1  0  0  0  0
 60 58  1  0  0  0  0
 61 63  1  0  0  0  0
 61 32  1  0  0  0  0
 62 61  1  0  0  0  0
 64 65  1  0  0  0  0
 64 61  1  0  0  0  0
 66 64  1  0  0  0  0
 67 69  1  0  0  0  0
 67 64  1  0  0  0  0
 68 67  1  0  0  0  0
 70 71  1  0  0  0  0
 70 67  1  0  0  0  0
 72 70  1  0  0  0  0
 73 75  1  0  0  0  0
 73 70  1  0  0  0  0
 74 73  1  0  0  0  0
 76 78  1  0  0  0  0
 76 73  1  0  0  0  0
 77 76  1  0  0  0  0
 79 76  1  0  0  0  0
 79 80  1  0  0  0  0
 81 79  2  0  0  0  0
 82 81  1  0  0  0  0
 83 85  1  0  0  0  0
 83 81  1  0  0  0  0
 83 84  1  0  0  0  0
 86 83  1  0  0  0  0
 87 86  1  0  0  0  0
 88 86  1  0  0  0  0
 89 90  1  0  0  0  0
 89 86  1  0  0  0  0
 91 89  1  0  0  0  0
 92 89  1  0  0  0  0
 92 93  1  0  0  0  0
 94 92  1  0  0  0  0
 95 97  1  0  0  0  0
 95 96  1  0  0  0  0
 95 92  1  0  0  0  0
 98 95  1  0  0  0  0
 99 98  1  0  0  0  0
100 98  1  0  0  0  0
101 98  1  0  0  0  0
102103  1  0  0  0  0
104102  1  0  0  0  0
105107  1  0  0  0  0
105108  1  0  0  0  0
105102  1  0  0  0  0
106105  1  0  0  0  0
108109  1  0  0  0  0
110108  1  0  0  0  0
111113  1  0  0  0  0
111108  1  0  0  0  0
112111  1  0  0  0  0
114111  1  0  0  0  0
115114  1  0  0  0  0
116114  1  0  0  0  0
117119  1  0  0  0  0
118117  1  0  0  0  0
120117  1  0  0  0  0
121120  1  0  0  0  0
122124  1  0  0  0  0
122120  1  0  0  0  0
123122  1  0  0  0  0
124125  1  0  0  0  0
126124  1  0  0  0  0
127129  1  0  0  0  0
127128  1  0  0  0  0
127124  1  0  0  0  0
130127  1  0  0  0  0
131130  1  0  0  0  0
132130  1  0  0  0  0
133135  1  0  0  0  0
133130  1  0  0  0  0
133134  1  0  0  0  0
136133  1  0  0  0  0
137136  1  0  0  0  0
138136  1  0  0  0  0
139140  1  0  0  0  0
139136  1  0  0  0  0
141139  1  0  0  0  0
142139  1  0  0  0  0
143144  1  0  0  0  0
143 49  1  0  0  0  0
145143  1  0  0  0  0
146143  1  0  0  0  0
146148  1  0  0  0  0
147146  1  0  0  0  0
149150  1  0  0  0  0
149151  1  0  0  0  0
149146  1  0  0  0  0
152149  1  0  0  0  0
153152  1  0  0  0  0
154152  1  0  0  0  0
155152  1  0  0  0  0
155157  1  0  0  0  0
156155  1  0  0  0  0
158159  1  0  0  0  0
158155  1  0  0  0  0
160158  1  0  0  0  0
161158  1  0  0  0  0
161162  1  0  0  0  0
163164  1  0  0  0  0
163161  1  0  0  0  0
165166  1  0  0  0  0
165163  1  0  0  0  0
167165  1  0  0  0  0
168165  1  0  0  0  0
168169  1  0  0  0  0
170168  1  0  0  0  0
171168  1  0  0  0  0
171172  1  0  0  0  0
173171  1  0  0  0  0
174176  1  0  0  0  0
174171  1  0  0  0  0
175174  1  0  0  0  0
177174  1  0  0  0  0
177179  1  0  0  0  0
178177  1  0  0  0  0
180177  1  0  0  0  0
180181  1  0  0  0  0
182180  1  0  0  0  0
183180  1  0  0  0  0
184186  1  0  0  0  0
184 58  1  0  0  0  0
185184  1  0  0  0  0
187188  1  0  0  0  0
187184  1  0  0  0  0
189187  1  0  0  0  0
190192  1  0  0  0  0
190187  1  0  0  0  0
191190  1  0  0  0  0
193190  1  0  0  0  0
193195  1  0  0  0  0
194193  1  0  0  0  0
196197  1  0  0  0  0
196193  1  0  0  0  0
198196  1  0  0  0  0
199196  1  0  0  0  0
199201  1  0  0  0  0
200199  1  0  0  0  0
202203  1  0  0  0  0
202199  1  0  0  0  0
204202  2  0  0  0  0
205204  1  0  0  0  0
206207  1  0  0  0  0
206204  1  0  0  0  0
208206  1  0  0  0  0
209206  1  0  0  0  0
209210  1  0  0  0  0
211209  1  0  0  0  0
213212  1  0  0  0  0
214212  1  0  0  0  0
215212  1  0  0  0  0
215216  1  0  0  0  0
217215  1  0  0  0  0
219218  1  0  0  0  0
220218  1  0  0  0  0
221223  1  0  0  0  0
221222  1  0  0  0  0
224221  1  0  0  0  0
M  END
