DMPI2A
 OpenBabel02161614153D

128126  0  0  1  0  0  0  0  0999 V2000
   51.3500    1.8200   60.2400 C   0  0  2  0  0  0  0  0  0  0  0  0
   51.8800    2.6200   59.5500 H   0  0  0  0  0  0  0  0  0  0  0  0
   51.9200    0.6500   59.9000 O   0  0  0  0  0  0  0  0  0  0  0  0
   52.8000    0.7500   60.2800 H   0  0  0  0  0  0  0  0  0  0  0  0
   51.5600    2.2500   61.6600 C   0  0  2  0  0  0  0  0  0  0  0  0
   51.7200    3.4100   61.5600 H   0  0  0  0  0  0  0  0  0  0  0  0
   51.9800    0.7100   62.3100 O   0  0  0  0  0  0  0  0  0  0  0  0
   50.5500   -0.6100   63.1100 P   0  0  0  0  0  0  0  0  0  0  0  0
   49.6000   -1.7200   63.8900 O   0  0  0  0  0  0  0  0  0  0  0  0
   49.3800   -1.5000   64.8200 H   0  0  0  0  0  0  0  0  0  0  0  0
   50.3300   -0.2600   64.5900 O   0  0  0  0  0  0  0  0  0  0  0  0
   49.2600   -0.5700   62.4900 O   0  0  0  0  0  0  0  0  0  0  0  0
   50.8000    1.9500   62.7300 C   0  0  0  0  0  0  0  0  0  0  0  0
   50.6600    1.6400   63.7000 H   0  0  0  0  0  0  0  0  0  0  0  0
   51.3500    2.0400   64.1400 O   0  0  0  0  0  0  0  0  0  0  0  0
   52.2300    2.2800   64.3200 H   0  0  0  0  0  0  0  0  0  0  0  0
   49.4300    2.2500   62.4600 C   0  0  2  0  0  0  0  0  0  0  0  0
   49.0500    3.0500   61.8400 H   0  0  0  0  0  0  0  0  0  0  0  0
   49.2700    3.4200   63.3600 O   0  0  0  0  0  0  0  0  0  0  0  0
   50.5000    4.6600   63.9000 P   0  0  0  0  0  0  0  0  0  0  0  0
   51.7700    4.8500   63.0700 O   0  0  0  0  0  0  0  0  0  0  0  0
   51.0300    4.2900   65.2900 O   0  0  0  0  0  0  0  0  0  0  0  0
   49.8900    6.0300   64.0400 O   0  0  0  0  0  0  0  0  0  0  0  0
   49.1100    1.4200   60.9700 C   0  0  1  0  0  0  0  0  0  0  0  0
   49.5800    0.3900   60.7900 H   0  0  0  0  0  0  0  0  0  0  0  0
   47.7500    1.2200   60.6400 O   0  0  0  0  0  0  0  0  0  0  0  0
   47.7600    0.4400   60.0400 H   0  0  0  0  0  0  0  0  0  0  0  0
   49.9200    2.0800   59.8600 C   0  0  2  0  0  0  0  0  0  0  0  0
   49.5400    3.1100   59.8900 H   0  0  0  0  0  0  0  0  0  0  0  0
   49.9600    2.1400   57.1800 P   0  0  2  0  0  0  0  0  0  0  0  0
   49.1100    3.3300   57.0800 O   0  0  0  0  0  0  0  0  0  0  0  0
   51.4000    2.3100   56.9500 O   0  0  0  0  0  0  0  0  0  0  0  0
   49.3800    1.0300   56.2300 O   0  0  0  0  0  0  0  0  0  0  0  0
   49.6100    1.4300   58.6100 O   0  0  0  0  0  0  0  0  0  0  0  0
   48.0800    0.4800   56.5000 C   0  0  0  0  0  0  0  0  0  0  0  0
   47.3400    1.2300   56.8400 H   0  0  0  0  0  0  0  0  0  0  0  0
   48.1800   -0.3200   57.2700 H   0  0  0  0  0  0  0  0  0  0  0  0
   47.5400   -0.1200   55.2000 C   0  0  2  0  0  0  0  0  0  0  0  0
   46.6400   -0.7400   55.4200 H   0  0  0  0  0  0  0  0  0  0  0  0
   48.5900   -0.9300   54.7200 O   0  0  0  0  0  0  0  0  0  0  0  0
   48.3800   -1.5900   53.6700 C   0  0  0  0  0  0  0  0  0  0  0  0
   47.3000   -1.9500   53.2100 O   0  0  0  0  0  0  0  0  0  0  0  0
   49.7800   -2.0700   53.3000 C   0  0  0  0  0  0  0  0  0  0  0  0
   50.0400   -2.5700   54.2700 H   0  0  0  0  0  0  0  0  0  0  0  0
   50.5800   -1.3700   53.1300 H   0  0  0  0  0  0  0  0  0  0  0  0
   47.1100    0.9600   54.1600 C   0  0  0  0  0  0  0  0  0  0  0  0
   46.2400    1.4900   54.6200 H   0  0  0  0  0  0  0  0  0  0  0  0
   46.7500    0.4600   53.2300 H   0  0  0  0  0  0  0  0  0  0  0  0
   48.1400    1.9300   53.8900 O   0  0  0  0  0  0  0  0  0  0  0  0
   48.9200    1.7200   52.8500 C   0  0  0  0  0  0  0  0  0  0  0  0
   48.7400    0.8700   51.9900 O   0  0  0  0  0  0  0  0  0  0  0  0
   50.0800    2.7200   52.8800 C   0  0  0  0  0  0  0  0  0  0  0  0
   50.9800    2.1300   53.1500 H   0  0  0  0  0  0  0  0  0  0  0  0
   49.9000    3.4500   53.6900 H   0  0  0  0  0  0  0  0  0  0  0  0
   49.8100   -2.9700   52.0800 C   0  0  0  0  0  0  0  0  0  0  0  0
   48.7500   -3.2900   52.2100 H   0  0  0  0  0  0  0  0  0  0  0  0
   50.6600   -3.7400   52.1100 H   0  0  0  0  0  0  0  0  0  0  0  0
   49.5800   -2.8300   50.6900 C   0  0  0  0  0  0  0  0  0  0  0  0
   48.6100   -2.3100   50.6100 H   0  0  0  0  0  0  0  0  0  0  0  0
   49.4300   -3.7900   50.1100 H   0  0  0  0  0  0  0  0  0  0  0  0
   50.8600   -2.1800   50.3500 C   0  0  0  0  0  0  0  0  0  0  0  0
   51.7700   -2.8300   50.3900 H   0  0  0  0  0  0  0  0  0  0  0  0
   51.0100   -1.2400   50.8500 H   0  0  0  0  0  0  0  0  0  0  0  0
   50.5100   -1.7000   49.0700 C   0  0  0  0  0  0  0  0  0  0  0  0
   49.4700   -1.6500   48.9500 H   0  0  0  0  0  0  0  0  0  0  0  0
   50.8100   -2.7400   48.8400 H   0  0  0  0  0  0  0  0  0  0  0  0
   51.2900   -0.7400   48.2400 C   0  0  0  0  0  0  0  0  0  0  0  0
   51.7600   -1.6000   47.8000 H   0  0  0  0  0  0  0  0  0  0  0  0
   52.1200   -0.2700   48.7700 H   0  0  0  0  0  0  0  0  0  0  0  0
   50.5500    0.1200   47.1000 C   0  0  0  0  0  0  0  0  0  0  0  0
   51.2700    0.9000   46.8100 H   0  0  0  0  0  0  0  0  0  0  0  0
   49.6600    0.5400   47.5700 H   0  0  0  0  0  0  0  0  0  0  0  0
   50.1900   -0.4100   45.6400 C   0  0  0  0  0  0  0  0  0  0  0  0
   49.6200   -1.2400   45.7500 H   0  0  0  0  0  0  0  0  0  0  0  0
   50.8900   -0.9300   45.0400 H   0  0  0  0  0  0  0  0  0  0  0  0
   49.2500    0.1500   44.6400 C   0  0  0  0  0  0  0  0  0  0  0  0
   49.8000    0.9900   44.2300 H   0  0  0  0  0  0  0  0  0  0  0  0
   48.4200    0.5800   45.1700 H   0  0  0  0  0  0  0  0  0  0  0  0
   48.8400   -0.8200   43.4800 C   0  0  0  0  0  0  0  0  0  0  0  0
   49.6200   -1.2100   42.8900 H   0  0  0  0  0  0  0  0  0  0  0  0
   48.4100   -0.0500   42.8400 H   0  0  0  0  0  0  0  0  0  0  0  0
   47.9400   -2.0900   43.6700 C   0  0  0  0  0  0  0  0  0  0  0  0
   47.1300   -1.8400   44.3100 H   0  0  0  0  0  0  0  0  0  0  0  0
   48.5200   -2.9200   43.9500 H   0  0  0  0  0  0  0  0  0  0  0  0
   46.8700   -2.7300   42.8200 C   0  0  0  0  0  0  0  0  0  0  0  0
   46.2400   -2.0500   42.3200 H   0  0  0  0  0  0  0  0  0  0  0  0
   46.2100   -3.4300   43.3900 H   0  0  0  0  0  0  0  0  0  0  0  0
   47.5700   -3.2400   41.7100 C   0  0  0  0  0  0  0  0  0  0  0  0
   46.9300   -3.7900   41.0600 H   0  0  0  0  0  0  0  0  0  0  0  0
   48.2000   -2.5000   41.2100 H   0  0  0  0  0  0  0  0  0  0  0  0
   48.3000   -3.8500   42.1800 H   0  0  0  0  0  0  0  0  0  0  0  0
   50.4000    3.4200   51.5400 C   0  0  0  0  0  0  0  0  0  0  0  0
   50.5400    2.6800   50.7200 H   0  0  0  0  0  0  0  0  0  0  0  0
   51.3800    3.9200   51.7100 H   0  0  0  0  0  0  0  0  0  0  0  0
   49.4100    4.5000   51.1100 C   0  0  0  0  0  0  0  0  0  0  0  0
   49.2000    5.1700   51.9800 H   0  0  0  0  0  0  0  0  0  0  0  0
   48.4500    4.0200   50.8200 H   0  0  0  0  0  0  0  0  0  0  0  0
   49.9200    5.4000   49.9700 C   0  0  0  0  0  0  0  0  0  0  0  0
   50.9500    5.7700   50.1800 H   0  0  0  0  0  0  0  0  0  0  0  0
   49.2200    6.2700   49.9800 H   0  0  0  0  0  0  0  0  0  0  0  0
   49.7800    4.8900   48.5400 C   0  0  0  0  0  0  0  0  0  0  0  0
   50.5000    4.0800   48.2900 H   0  0  0  0  0  0  0  0  0  0  0  0
   49.9900    5.7500   47.8900 H   0  0  0  0  0  0  0  0  0  0  0  0
   48.3700    4.4400   48.2000 C   0  0  0  0  0  0  0  0  0  0  0  0
   47.6000    5.1700   48.5500 H   0  0  0  0  0  0  0  0  0  0  0  0
   48.2100    3.4800   48.7600 H   0  0  0  0  0  0  0  0  0  0  0  0
   48.2000    4.2400   46.7100 C   0  0  0  0  0  0  0  0  0  0  0  0
   49.0600    3.6400   46.3100 H   0  0  0  0  0  0  0  0  0  0  0  0
   48.0700    5.1400   46.1000 H   0  0  0  0  0  0  0  0  0  0  0  0
   46.9200    3.5500   46.4600 C   0  0  0  0  0  0  0  0  0  0  0  0
   46.0000    3.8900   46.9900 H   0  0  0  0  0  0  0  0  0  0  0  0
   47.2400    2.6400   46.8800 H   0  0  0  0  0  0  0  0  0  0  0  0
   46.6300    3.3700   45.0300 C   0  0  0  0  0  0  0  0  0  0  0  0
   45.5600    3.0200   45.1600 H   0  0  0  0  0  0  0  0  0  0  0  0
   47.3300    2.6600   44.4700 H   0  0  0  0  0  0  0  0  0  0  0  0
   46.1600    4.5000   44.2400 C   0  0  0  0  0  0  0  0  0  0  0  0
   47.0300    5.1000   44.0200 H   0  0  0  0  0  0  0  0  0  0  0  0
   45.4900    4.9400   45.0200 H   0  0  0  0  0  0  0  0  0  0  0  0
   45.3600    4.2300   42.9800 C   0  0  0  0  0  0  0  0  0  0  0  0
   44.9900    5.2400   42.7100 H   0  0  0  0  0  0  0  0  0  0  0  0
   44.4400    3.7100   43.1700 H   0  0  0  0  0  0  0  0  0  0  0  0
   46.1300    3.6500   41.7800 C   0  0  0  0  0  0  0  0  0  0  0  0
   45.4900    3.7700   40.9100 H   0  0  0  0  0  0  0  0  0  0  0  0
   46.3100    2.5700   41.7800 H   0  0  0  0  0  0  0  0  0  0  0  0
   47.4700    4.3000   41.5000 C   0  0  0  0  0  0  0  0  0  0  0  0
   47.4400    5.4000   41.6100 H   0  0  0  0  0  0  0  0  0  0  0  0
   48.2300    3.9900   42.2300 H   0  0  0  0  0  0  0  0  0  0  0  0
   47.7300    4.0500   40.4400 H   0  0  0  0  0  0  0  0  0  0  0  0
  1  2  1  6  0  0  0
  1  5  1  0  0  0  0
  3  1  1  0  0  0  0
  3  4  1  0  0  0  0
  5  6  1  1  0  0  0
  5  7  1  0  0  0  0
  5 13  1  0  0  0  0
  8  9  1  0  0  0  0
  8 11  1  0  0  0  0
  9 10  1  0  0  0  0
 12  8  1  0  0  0  0
 14 15  1  0  0  0  0
 15 16  1  0  0  0  0
 17 18  1  6  0  0  0
 17 13  1  0  0  0  0
 17 19  1  0  0  0  0
 19 20  1  0  0  0  0
 20 23  1  0  0  0  0
 20 22  1  0  0  0  0
 21 20  2  0  0  0  0
 24 25  1  1  0  0  0
 24 17  1  0  0  0  0
 26 24  1  0  0  0  0
 27 26  1  0  0  0  0
 28 29  1  6  0  0  0
 28  1  1  0  0  0  0
 28 24  1  0  0  0  0
 30 33  1  6  0  0  0
 30 34  1  0  0  0  0
 31 30  1  0  0  0  0
 32 30  2  0  0  0  0
 33 35  1  0  0  0  0
 34 28  1  0  0  0  0
 35 36  1  0  0  0  0
 35 37  1  0  0  0  0
 38 39  1  1  0  0  0
 38 35  1  0  0  0  0
 40 38  1  0  0  0  0
 41 40  1  0  0  0  0
 42 41  2  0  0  0  0
 43 41  1  0  0  0  0
 43 44  1  0  0  0  0
 45 43  1  0  0  0  0
 46 47  1  0  0  0  0
 46 38  1  0  0  0  0
 48 46  1  0  0  0  0
 49 46  1  0  0  0  0
 50 52  1  0  0  0  0
 50 49  1  0  0  0  0
 51 50  2  0  0  0  0
 52 53  1  0  0  0  0
 52 54  1  0  0  0  0
 55 57  1  0  0  0  0
 55 56  1  0  0  0  0
 55 43  1  0  0  0  0
 58 55  1  0  0  0  0
 59 58  1  0  0  0  0
 60 58  1  0  0  0  0
 61 62  1  0  0  0  0
 61 58  1  0  0  0  0
 61 63  1  0  0  0  0
 64 61  1  0  0  0  0
 65 64  1  0  0  0  0
 66 64  1  0  0  0  0
 67 69  1  0  0  0  0
 67 64  1  0  0  0  0
 68 67  1  0  0  0  0
 70 72  1  0  0  0  0
 70 67  1  0  0  0  0
 71 70  1  0  0  0  0
 73 74  1  0  0  0  0
 73 70  1  0  0  0  0
 75 73  1  0  0  0  0
 76 78  1  0  0  0  0
 76 73  1  0  0  0  0
 77 76  1  0  0  0  0
 79 82  1  0  0  0  0
 79 76  1  0  0  0  0
 80 79  1  0  0  0  0
 81 79  1  0  0  0  0
 82 84  1  0  0  0  0
 82 83  1  0  0  0  0
 85 87  1  0  0  0  0
 85 82  1  0  0  0  0
 86 85  1  0  0  0  0
 88 91  1  0  0  0  0
 88 85  1  0  0  0  0
 89 88  1  0  0  0  0
 90 88  1  0  0  0  0
 92 94  1  0  0  0  0
 92 52  1  0  0  0  0
 93 92  1  0  0  0  0
 95 92  1  0  0  0  0
 95 96  1  0  0  0  0
 97 95  1  0  0  0  0
 98100  1  0  0  0  0
 98 99  1  0  0  0  0
 98 95  1  0  0  0  0
101 98  1  0  0  0  0
102101  1  0  0  0  0
103101  1  0  0  0  0
104101  1  0  0  0  0
104105  1  0  0  0  0
104106  1  0  0  0  0
107104  1  0  0  0  0
108107  1  0  0  0  0
109107  1  0  0  0  0
110107  1  0  0  0  0
110112  1  0  0  0  0
110111  1  0  0  0  0
113114  1  0  0  0  0
113110  1  0  0  0  0
115113  1  0  0  0  0
116118  1  0  0  0  0
116113  1  0  0  0  0
117116  1  0  0  0  0
119121  1  0  0  0  0
119116  1  0  0  0  0
120119  1  0  0  0  0
122119  1  0  0  0  0
123122  1  0  0  0  0
124122  1  0  0  0  0
125126  1  0  0  0  0
125122  1  0  0  0  0
125127  1  0  0  0  0
128125  1  0  0  0  0
M  END
