POPG
 OpenBabel02161614153D

127126  0  0  1  0  0  0  0  0999 V2000
    5.8800   29.0500   60.0500 C   0  0  0  0  0  0  0  0  0  0  0  0
    5.7200   29.8200   59.2500 H   0  0  0  0  0  0  0  0  0  0  0  0
    5.9100   29.6100   61.0000 H   0  0  0  0  0  0  0  0  0  0  0  0
    7.1400   28.3900   59.8700 O   0  0  0  0  0  0  0  0  0  0  0  0
    7.0300   27.8400   59.0700 H   0  0  0  0  0  0  0  0  0  0  0  0
    4.7000   28.0300   60.0600 C   0  0  1  0  0  0  0  0  0  0  0  0
    5.1100   27.0400   60.3400 H   0  0  0  0  0  0  0  0  0  0  0  0
    3.7500   28.3200   61.0900 O   0  0  0  0  0  0  0  0  0  0  0  0
    3.0100   27.7200   60.9400 H   0  0  0  0  0  0  0  0  0  0  0  0
    4.0400   27.8800   58.6500 C   0  0  0  0  0  0  0  0  0  0  0  0
    3.4000   28.7700   58.4600 H   0  0  0  0  0  0  0  0  0  0  0  0
    3.3800   26.9900   58.6500 H   0  0  0  0  0  0  0  0  0  0  0  0
    5.6900   26.4700   57.1400 P   0  0  2  0  0  0  0  0  0  0  0  0
    5.6600   25.5500   58.2900 O   0  0  0  0  0  0  0  0  0  0  0  0
    7.0200   26.8400   56.6400 O   0  0  0  0  0  0  0  0  0  0  0  0
    5.0200   27.8300   57.5900 O   0  0  0  0  0  0  0  0  0  0  0  0
    4.8400   25.9400   55.9600 O   0  0  0  0  0  0  0  0  0  0  0  0
    3.8500   26.6800   55.3100 C   0  0  0  0  0  0  0  0  0  0  0  0
    4.2000   27.0400   54.3100 H   0  0  0  0  0  0  0  0  0  0  0  0
    3.4900   27.5800   55.8800 H   0  0  0  0  0  0  0  0  0  0  0  0
    2.7100   25.7000   55.1100 C   0  0  2  0  0  0  0  0  0  0  0  0
    2.3000   25.5800   56.1700 H   0  0  0  0  0  0  0  0  0  0  0  0
    3.0100   24.4800   54.5500 O   0  0  0  0  0  0  0  0  0  0  0  0
    2.8700   23.4600   55.3200 C   0  0  0  0  0  0  0  0  0  0  0  0
    2.7900   23.4400   56.5400 O   0  0  0  0  0  0  0  0  0  0  0  0
    2.7600   22.3500   54.3100 C   0  0  0  0  0  0  0  0  0  0  0  0
    1.7600   22.3900   53.8200 H   0  0  0  0  0  0  0  0  0  0  0  0
    2.8300   21.4300   54.8900 H   0  0  0  0  0  0  0  0  0  0  0  0
    1.6800   26.1800   54.1600 C   0  0  0  0  0  0  0  0  0  0  0  0
    1.3600   26.7100   55.0900 H   0  0  0  0  0  0  0  0  0  0  0  0
    0.7700   25.5300   54.1500 H   0  0  0  0  0  0  0  0  0  0  0  0
    2.1800   26.8900   52.8400 O   0  0  0  0  0  0  0  0  0  0  0  0
    1.8300   27.9900   52.0000 C   0  0  0  0  0  0  0  0  0  0  0  0
    0.9900   28.7900   52.0700 O   0  0  0  0  0  0  0  0  0  0  0  0
    2.2100   28.5300   50.7400 C   0  0  0  0  0  0  0  0  0  0  0  0
    2.2000   27.5000   50.3700 H   0  0  0  0  0  0  0  0  0  0  0  0
    3.0300   29.2400   50.8800 H   0  0  0  0  0  0  0  0  0  0  0  0
    3.9000   22.5300   53.2900 C   0  0  0  0  0  0  0  0  0  0  0  0
    3.6400   23.3500   52.5700 H   0  0  0  0  0  0  0  0  0  0  0  0
    4.0000   21.6000   52.7000 H   0  0  0  0  0  0  0  0  0  0  0  0
    5.2400   22.8600   53.9900 C   0  0  0  0  0  0  0  0  0  0  0  0
    5.4000   22.0700   54.7500 H   0  0  0  0  0  0  0  0  0  0  0  0
    5.2100   23.8300   54.5400 H   0  0  0  0  0  0  0  0  0  0  0  0
    6.4500   22.9600   53.0600 C   0  0  0  0  0  0  0  0  0  0  0  0
    6.5700   21.9700   52.5800 H   0  0  0  0  0  0  0  0  0  0  0  0
    7.3500   23.1400   53.6900 H   0  0  0  0  0  0  0  0  0  0  0  0
    6.3700   24.0600   51.9900 C   0  0  0  0  0  0  0  0  0  0  0  0
    5.3300   24.1500   51.6100 H   0  0  0  0  0  0  0  0  0  0  0  0
    7.0000   23.7500   51.1300 H   0  0  0  0  0  0  0  0  0  0  0  0
    6.8800   25.4300   52.4600 C   0  0  0  0  0  0  0  0  0  0  0  0
    7.9600   25.3200   52.6900 H   0  0  0  0  0  0  0  0  0  0  0  0
    6.3600   25.7400   53.4000 H   0  0  0  0  0  0  0  0  0  0  0  0
    6.7400   26.5400   51.4000 C   0  0  0  0  0  0  0  0  0  0  0  0
    7.1700   26.1800   50.4400 H   0  0  0  0  0  0  0  0  0  0  0  0
    7.3400   27.4200   51.7100 H   0  0  0  0  0  0  0  0  0  0  0  0
    5.3200   26.9700   51.1900 C   0  0  0  0  0  0  0  0  0  0  0  0
    4.8300   27.5300   52.0100 H   0  0  0  0  0  0  0  0  0  0  0  0
    4.6700   26.6600   50.0800 C   0  0  0  0  0  0  0  0  0  0  0  0
    3.7100   27.0300   49.9000 H   0  0  0  0  0  0  0  0  0  0  0  0
    5.0600   25.9000   48.8600 C   0  0  0  0  0  0  0  0  0  0  0  0
    5.2800   24.8500   49.1500 H   0  0  0  0  0  0  0  0  0  0  0  0
    5.9200   26.4000   48.3800 H   0  0  0  0  0  0  0  0  0  0  0  0
    3.9300   25.8700   47.8500 C   0  0  0  0  0  0  0  0  0  0  0  0
    4.2800   25.5500   46.8500 H   0  0  0  0  0  0  0  0  0  0  0  0
    3.4500   26.8600   47.7100 H   0  0  0  0  0  0  0  0  0  0  0  0
    2.8600   24.9000   48.2400 C   0  0  0  0  0  0  0  0  0  0  0  0
    2.5500   25.0000   49.3200 H   0  0  0  0  0  0  0  0  0  0  0  0
    3.1700   23.8400   48.1100 H   0  0  0  0  0  0  0  0  0  0  0  0
    1.6600   25.1800   47.3800 C   0  0  0  0  0  0  0  0  0  0  0  0
    1.1200   26.0100   47.8400 H   0  0  0  0  0  0  0  0  0  0  0  0
    1.2000   24.2000   47.5500 H   0  0  0  0  0  0  0  0  0  0  0  0
    1.6600   25.3000   45.8600 C   0  0  0  0  0  0  0  0  0  0  0  0
    2.0000   24.3200   45.4900 H   0  0  0  0  0  0  0  0  0  0  0  0
    2.4400   26.0000   45.5800 H   0  0  0  0  0  0  0  0  0  0  0  0
    0.3300   25.6800   45.1500 C   0  0  0  0  0  0  0  0  0  0  0  0
   -0.1900   26.6100   45.4800 H   0  0  0  0  0  0  0  0  0  0  0  0
   -0.4300   24.9100   45.1300 H   0  0  0  0  0  0  0  0  0  0  0  0
    0.4200   25.5100   43.6900 C   0  0  0  0  0  0  0  0  0  0  0  0
    1.1500   24.6900   43.5100 H   0  0  0  0  0  0  0  0  0  0  0  0
    0.8500   26.4800   43.4100 H   0  0  0  0  0  0  0  0  0  0  0  0
   -0.9200   25.1100   43.0000 C   0  0  0  0  0  0  0  0  0  0  0  0
   -0.7900   25.0600   41.9300 H   0  0  0  0  0  0  0  0  0  0  0  0
   -1.8300   25.6700   43.2700 H   0  0  0  0  0  0  0  0  0  0  0  0
   -1.0800   24.0800   42.7900 H   0  0  0  0  0  0  0  0  0  0  0  0
    0.8800   29.2000   50.1200 C   0  0  0  0  0  0  0  0  0  0  0  0
    0.2200   29.9900   50.6200 H   0  0  0  0  0  0  0  0  0  0  0  0
    0.4400   28.1900   50.1000 H   0  0  0  0  0  0  0  0  0  0  0  0
    0.6600   29.6300   48.8300 C   0  0  0  0  0  0  0  0  0  0  0  0
    1.0700   30.6600   48.8600 H   0  0  0  0  0  0  0  0  0  0  0  0
   -0.4200   29.8700   48.7100 H   0  0  0  0  0  0  0  0  0  0  0  0
    1.2400   28.3200   48.1900 C   0  0  0  0  0  0  0  0  0  0  0  0
    0.3700   27.6300   48.3000 H   0  0  0  0  0  0  0  0  0  0  0  0
    2.1900   28.0000   48.5900 H   0  0  0  0  0  0  0  0  0  0  0  0
    1.6200   28.6400   46.8200 C   0  0  0  0  0  0  0  0  0  0  0  0
    0.7300   28.9300   46.6900 H   0  0  0  0  0  0  0  0  0  0  0  0
    1.9000   29.4800   47.2400 H   0  0  0  0  0  0  0  0  0  0  0  0
    2.3100   28.2900   45.4500 C   0  0  0  0  0  0  0  0  0  0  0  0
    1.5000   27.6600   45.0800 H   0  0  0  0  0  0  0  0  0  0  0  0
    3.2400   27.8000   45.7100 H   0  0  0  0  0  0  0  0  0  0  0  0
    2.4100   29.1700   44.0800 C   0  0  0  0  0  0  0  0  0  0  0  0
    1.5600   29.8300   43.8400 H   0  0  0  0  0  0  0  0  0  0  0  0
    2.4000   28.4500   43.2600 H   0  0  0  0  0  0  0  0  0  0  0  0
    3.5400   30.1800   43.8200 C   0  0  0  0  0  0  0  0  0  0  0  0
    3.1600   31.1300   44.2200 H   0  0  0  0  0  0  0  0  0  0  0  0
    3.6500   30.6300   42.8200 H   0  0  0  0  0  0  0  0  0  0  0  0
    4.8700   29.6200   44.3800 C   0  0  0  0  0  0  0  0  0  0  0  0
    4.8400   29.3900   45.4400 H   0  0  0  0  0  0  0  0  0  0  0  0
    5.7000   30.3300   44.2400 H   0  0  0  0  0  0  0  0  0  0  0  0
    5.2400   28.3100   43.8700 C   0  0  0  0  0  0  0  0  0  0  0  0
    4.6000   27.5200   44.3200 H   0  0  0  0  0  0  0  0  0  0  0  0
    6.3100   28.1200   44.1400 H   0  0  0  0  0  0  0  0  0  0  0  0
    4.9700   28.5300   42.4500 C   0  0  0  0  0  0  0  0  0  0  0  0
    3.9500   28.7200   42.0900 H   0  0  0  0  0  0  0  0  0  0  0  0
    5.0900   27.5000   42.0700 H   0  0  0  0  0  0  0  0  0  0  0  0
    5.8600   29.7000   41.9300 C   0  0  0  0  0  0  0  0  0  0  0  0
    6.9100   29.5200   42.1800 H   0  0  0  0  0  0  0  0  0  0  0  0
    5.7900   30.6800   42.3500 H   0  0  0  0  0  0  0  0  0  0  0  0
    5.5000   29.9900   40.5300 C   0  0  0  0  0  0  0  0  0  0  0  0
    6.1500   30.7700   40.0600 H   0  0  0  0  0  0  0  0  0  0  0  0
    4.4300   30.2800   40.5700 H   0  0  0  0  0  0  0  0  0  0  0  0
    5.5900   28.6700   39.8700 C   0  0  0  0  0  0  0  0  0  0  0  0
    5.6900   28.9500   38.7900 H   0  0  0  0  0  0  0  0  0  0  0  0
    4.6300   28.1100   39.9300 H   0  0  0  0  0  0  0  0  0  0  0  0
    6.8000   27.9100   40.5200 C   0  0  0  0  0  0  0  0  0  0  0  0
    6.8900   26.9000   40.1000 H   0  0  0  0  0  0  0  0  0  0  0  0
    6.9000   27.6200   41.5700 H   0  0  0  0  0  0  0  0  0  0  0  0
    7.6800   28.5900   40.3700 H   0  0  0  0  0  0  0  0  0  0  0  0
  1  6  1  0  0  0  0
  1  3  1  0  0  0  0
  2  1  1  0  0  0  0
  4  1  1  0  0  0  0
  5  4  1  0  0  0  0
  6  7  1  1  0  0  0
  6  8  1  0  0  0  0
  9  8  1  0  0  0  0
 10  6  1  0  0  0  0
 11 10  1  0  0  0  0
 12 10  1  0  0  0  0
 13 17  1  6  0  0  0
 13 16  1  0  0  0  0
 13 14  1  0  0  0  0
 15 13  2  0  0  0  0
 16 10  1  0  0  0  0
 18 20  1  0  0  0  0
 18 17  1  0  0  0  0
 19 18  1  0  0  0  0
 21 18  1  0  0  0  0
 21 22  1  1  0  0  0
 23 21  1  0  0  0  0
 23 24  1  0  0  0  0
 24 25  2  0  0  0  0
 26 28  1  0  0  0  0
 26 24  1  0  0  0  0
 27 26  1  0  0  0  0
 29 30  1  0  0  0  0
 29 21  1  0  0  0  0
 31 29  1  0  0  0  0
 32 29  1  0  0  0  0
 33 34  2  0  0  0  0
 33 32  1  0  0  0  0
 35 37  1  0  0  0  0
 35 33  1  0  0  0  0
 36 35  1  0  0  0  0
 38 41  1  0  0  0  0
 38 26  1  0  0  0  0
 39 38  1  0  0  0  0
 40 38  1  0  0  0  0
 41 43  1  0  0  0  0
 41 42  1  0  0  0  0
 44 46  1  0  0  0  0
 44 41  1  0  0  0  0
 45 44  1  0  0  0  0
 47 50  1  0  0  0  0
 47 44  1  0  0  0  0
 48 47  1  0  0  0  0
 49 47  1  0  0  0  0
 50 51  1  0  0  0  0
 50 52  1  0  0  0  0
 53 55  1  0  0  0  0
 53 50  1  0  0  0  0
 54 53  1  0  0  0  0
 56 53  1  0  0  0  0
 56 57  1  0  0  0  0
 58 56  2  0  0  0  0
 59 58  1  0  0  0  0
 60 61  1  0  0  0  0
 60 58  1  0  0  0  0
 62 60  1  0  0  0  0
 63 66  1  0  0  0  0
 63 60  1  0  0  0  0
 64 63  1  0  0  0  0
 65 63  1  0  0  0  0
 66 67  1  0  0  0  0
 68 66  1  0  0  0  0
 69 71  1  0  0  0  0
 69 70  1  0  0  0  0
 69 66  1  0  0  0  0
 72 69  1  0  0  0  0
 73 72  1  0  0  0  0
 74 72  1  0  0  0  0
 75 76  1  0  0  0  0
 75 72  1  0  0  0  0
 77 75  1  0  0  0  0
 78 75  1  0  0  0  0
 79 78  1  0  0  0  0
 80 78  1  0  0  0  0
 81 83  1  0  0  0  0
 81 78  1  0  0  0  0
 82 81  1  0  0  0  0
 84 81  1  0  0  0  0
 85 86  1  0  0  0  0
 85 35  1  0  0  0  0
 87 85  1  0  0  0  0
 88 89  1  0  0  0  0
 88 85  1  0  0  0  0
 90 88  1  0  0  0  0
 91 92  1  0  0  0  0
 91 93  1  0  0  0  0
 91 88  1  0  0  0  0
 94 96  1  0  0  0  0
 94 91  1  0  0  0  0
 95 94  1  0  0  0  0
 97 99  1  0  0  0  0
 97 94  1  0  0  0  0
 98 97  1  0  0  0  0
100 97  1  0  0  0  0
101100  1  0  0  0  0
102100  1  0  0  0  0
103100  1  0  0  0  0
103104  1  0  0  0  0
103106  1  0  0  0  0
105103  1  0  0  0  0
106107  1  0  0  0  0
108106  1  0  0  0  0
109111  1  0  0  0  0
109110  1  0  0  0  0
109106  1  0  0  0  0
112109  1  0  0  0  0
113112  1  0  0  0  0
114112  1  0  0  0  0
115116  1  0  0  0  0
115117  1  0  0  0  0
115112  1  0  0  0  0
118120  1  0  0  0  0
118115  1  0  0  0  0
119118  1  0  0  0  0
121123  1  0  0  0  0
121124  1  0  0  0  0
121118  1  0  0  0  0
122121  1  0  0  0  0
124126  1  0  0  0  0
125124  1  0  0  0  0
127124  1  0  0  0  0
M  END
