POPI2A
 OpenBabel02161614153D

144139  0  0  1  0  0  0  0  0999 V2000
   71.8100   40.4100   61.8700 C   0  0  2  0  0  0  0  0  0  0  0  0
   71.1500   41.2400   61.4800 H   0  0  0  0  0  0  0  0  0  0  0  0
   73.1100   40.6700   61.3800 O   0  0  0  0  0  0  0  0  0  0  0  0
   73.1200   41.5600   61.0200 H   0  0  0  0  0  0  0  0  0  0  0  0
   71.7900   40.3300   63.3600 C   0  0  0  0  0  0  0  0  0  0  0  0
   71.2900   41.0700   63.7900 H   0  0  0  0  0  0  0  0  0  0  0  0
   70.3100   40.4300   63.5600 O   0  0  0  0  0  0  0  0  0  0  0  0
   69.0600   39.3000   64.0600 P   0  0  1  0  0  0  0  0  0  0  0  0
   68.6600   38.6200   65.4800 O   0  0  0  0  0  0  0  0  0  0  0  0
   68.7000   37.6600   65.2000 H   0  0  0  0  0  0  0  0  0  0  0  0
   68.0400   39.5500   63.0100 O   0  0  0  0  0  0  0  0  0  0  0  0
   69.3500   37.8400   63.8800 O   0  0  0  0  0  0  0  0  0  0  0  0
   72.9300   39.1700   64.2500 C   0  0  1  0  0  0  0  0  0  0  0  0
   73.7900   39.6300   63.8000 H   0  0  0  0  0  0  0  0  0  0  0  0
   73.7700   38.6700   65.5700 O   0  0  0  0  0  0  0  0  0  0  0  0
   73.2000   39.1600   66.2700 H   0  0  0  0  0  0  0  0  0  0  0  0
   72.2900   38.1500   63.8100 C   0  0  1  0  0  0  0  0  0  0  0  0
   71.3400   37.7600   63.7800 H   0  0  0  0  0  0  0  0  0  0  0  0
   71.5500   38.8300   65.0900 O   0  0  0  0  0  0  0  0  0  0  0  0
   71.7800   40.6000   66.1400 P   0  0  0  0  0  0  0  0  0  0  0  0
   70.6600   40.8100   67.1000 O   0  0  0  0  0  0  0  0  0  0  0  0
   71.7600   42.0100   65.4600 O   0  0  0  0  0  0  0  0  0  0  0  0
   73.2000   40.7500   66.6900 O   0  0  0  0  0  0  0  0  0  0  0  0
   72.1500   38.0300   62.1400 C   0  0  1  0  0  0  0  0  0  0  0  0
   73.1600   38.1500   61.7600 H   0  0  0  0  0  0  0  0  0  0  0  0
   71.7000   36.7200   61.7700 O   0  0  0  0  0  0  0  0  0  0  0  0
   72.0700   36.1400   62.4200 H   0  0  0  0  0  0  0  0  0  0  0  0
   71.3000   39.1100   61.5100 C   0  0  2  0  0  0  0  0  0  0  0  0
   70.3500   38.9500   61.9700 H   0  0  0  0  0  0  0  0  0  0  0  0
   69.4100   39.5100   59.7000 P   0  0  2  0  0  0  0  0  0  0  0  0
   69.1000   40.9400   60.0100 O   0  0  0  0  0  0  0  0  0  0  0  0
   68.4700   38.4700   60.1400 O   0  0  0  0  0  0  0  0  0  0  0  0
   71.0000   39.1200   60.1100 O   0  0  0  0  0  0  0  0  0  0  0  0
   69.5700   39.4100   58.1600 O   0  0  0  0  0  0  0  0  0  0  0  0
   70.6800   40.0200   57.5000 C   0  0  0  0  0  0  0  0  0  0  0  0
   71.3400   39.2300   57.0800 H   0  0  0  0  0  0  0  0  0  0  0  0
   71.2900   40.6600   58.1800 H   0  0  0  0  0  0  0  0  0  0  0  0
   70.1100   40.9500   56.4100 C   0  0  2  0  0  0  0  0  0  0  0  0
   69.4700   41.6900   56.9600 H   0  0  0  0  0  0  0  0  0  0  0  0
   69.3700   40.1600   55.4600 O   0  0  0  0  0  0  0  0  0  0  0  0
   68.0900   40.4600   55.3300 C   0  0  0  0  0  0  0  0  0  0  0  0
   67.4900   41.3100   55.9600 O   0  0  0  0  0  0  0  0  0  0  0  0
   67.4800   39.7100   54.1300 C   0  0  0  0  0  0  0  0  0  0  0  0
   66.3800   39.8300   54.2000 H   0  0  0  0  0  0  0  0  0  0  0  0
   67.6900   38.6300   54.1500 H   0  0  0  0  0  0  0  0  0  0  0  0
   71.2000   41.7700   55.6700 C   0  0  0  0  0  0  0  0  0  0  0  0
   71.6000   42.5000   56.4100 H   0  0  0  0  0  0  0  0  0  0  0  0
   71.9900   41.0700   55.3300 H   0  0  0  0  0  0  0  0  0  0  0  0
   70.6600   42.4800   54.5500 O   0  0  0  0  0  0  0  0  0  0  0  0
   71.5400   43.1600   53.8400 C   0  0  0  0  0  0  0  0  0  0  0  0
   72.7100   43.3100   54.1100 O   0  0  0  0  0  0  0  0  0  0  0  0
   70.7800   43.6600   52.6400 C   0  0  0  0  0  0  0  0  0  0  0  0
   70.0400   44.4000   53.0300 H   0  0  0  0  0  0  0  0  0  0  0  0
   70.2400   42.7900   52.2100 H   0  0  0  0  0  0  0  0  0  0  0  0
   68.0200   40.2800   52.8100 C   0  0  0  0  0  0  0  0  0  0  0  0
   67.9800   41.4000   52.8100 H   0  0  0  0  0  0  0  0  0  0  0  0
   67.3800   39.9100   51.9800 H   0  0  0  0  0  0  0  0  0  0  0  0
   69.4600   39.8300   52.6000 C   0  0  0  0  0  0  0  0  0  0  0  0
   69.5800   38.7400   52.8100 H   0  0  0  0  0  0  0  0  0  0  0  0
   70.1100   40.3600   53.3300 H   0  0  0  0  0  0  0  0  0  0  0  0
   69.9900   40.1400   51.2100 C   0  0  0  0  0  0  0  0  0  0  0  0
   69.8100   41.2100   50.9500 H   0  0  0  0  0  0  0  0  0  0  0  0
   69.4500   39.5300   50.4600 H   0  0  0  0  0  0  0  0  0  0  0  0
   71.4900   39.8800   51.1500 C   0  0  0  0  0  0  0  0  0  0  0  0
   71.7400   38.8200   51.3500 H   0  0  0  0  0  0  0  0  0  0  0  0
   71.9300   40.5100   51.9600 H   0  0  0  0  0  0  0  0  0  0  0  0
   72.1200   40.3200   49.8300 C   0  0  0  0  0  0  0  0  0  0  0  0
   73.2100   40.4000   50.0600 H   0  0  0  0  0  0  0  0  0  0  0  0
   71.7500   41.3400   49.5900 H   0  0  0  0  0  0  0  0  0  0  0  0
   72.0000   39.3400   48.6400 C   0  0  0  0  0  0  0  0  0  0  0  0
   72.4500   38.3600   48.9000 H   0  0  0  0  0  0  0  0  0  0  0  0
   72.6400   39.7700   47.8300 H   0  0  0  0  0  0  0  0  0  0  0  0
   70.6000   39.0900   48.1400 C   0  0  0  0  0  0  0  0  0  0  0  0
   70.0400   38.3300   48.7000 H   0  0  0  0  0  0  0  0  0  0  0  0
   70.0400   39.6100   47.0500 C   0  0  0  0  0  0  0  0  0  0  0  0
   68.9700   39.3900   46.8500 H   0  0  0  0  0  0  0  0  0  0  0  0
   70.7000   40.5700   46.1200 C   0  0  0  0  0  0  0  0  0  0  0  0
   71.7000   40.9700   46.3700 H   0  0  0  0  0  0  0  0  0  0  0  0
   70.0700   41.3700   46.4500 H   0  0  0  0  0  0  0  0  0  0  0  0
   70.7000   40.3500   44.5900 C   0  0  0  0  0  0  0  0  0  0  0  0
   70.8800   41.3000   44.0300 H   0  0  0  0  0  0  0  0  0  0  0  0
   69.7400   39.9500   44.2000 H   0  0  0  0  0  0  0  0  0  0  0  0
   71.5000   39.1800   44.1400 C   0  0  0  0  0  0  0  0  0  0  0  0
   71.2100   38.3400   44.8100 H   0  0  0  0  0  0  0  0  0  0  0  0
   72.5700   39.4100   44.2500 H   0  0  0  0  0  0  0  0  0  0  0  0
   71.1200   38.8300   42.6900 C   0  0  0  0  0  0  0  0  0  0  0  0
   70.0100   38.9000   42.5800 H   0  0  0  0  0  0  0  0  0  0  0  0
   71.3600   37.7700   42.5000 H   0  0  0  0  0  0  0  0  0  0  0  0
   71.9300   39.6600   41.6800 C   0  0  0  0  0  0  0  0  0  0  0  0
   72.7000   38.9900   41.2500 H   0  0  0  0  0  0  0  0  0  0  0  0
   72.5200   40.4200   42.2400 H   0  0  0  0  0  0  0  0  0  0  0  0
   71.1600   40.2700   40.5000 C   0  0  0  0  0  0  0  0  0  0  0  0
   70.6900   41.2500   40.7200 H   0  0  0  0  0  0  0  0  0  0  0  0
   70.3100   39.5800   40.2800 H   0  0  0  0  0  0  0  0  0  0  0  0
   72.0700   40.4200   39.2600 C   0  0  0  0  0  0  0  0  0  0  0  0
   71.4500   40.6900   38.3900 H   0  0  0  0  0  0  0  0  0  0  0  0
   72.5200   39.4300   39.0000 H   0  0  0  0  0  0  0  0  0  0  0  0
   73.2200   41.4300   39.4200 C   0  0  0  0  0  0  0  0  0  0  0  0
   73.8500   41.4700   38.5200 H   0  0  0  0  0  0  0  0  0  0  0  0
   72.8400   42.4300   39.6100 H   0  0  0  0  0  0  0  0  0  0  0  0
   73.8300   41.2600   40.3300 H   0  0  0  0  0  0  0  0  0  0  0  0
   71.6500   44.2500   51.5600 C   0  0  0  0  0  0  0  0  0  0  0  0
   72.4500   43.5600   51.2100 H   0  0  0  0  0  0  0  0  0  0  0  0
   72.1600   45.1700   51.8900 H   0  0  0  0  0  0  0  0  0  0  0  0
   70.7800   44.5900   50.4100 C   0  0  0  0  0  0  0  0  0  0  0  0
   70.1100   45.4800   50.6400 H   0  0  0  0  0  0  0  0  0  0  0  0
   70.1200   43.7900   50.0100 H   0  0  0  0  0  0  0  0  0  0  0  0
   71.6800   44.9500   49.3500 C   0  0  0  0  0  0  0  0  0  0  0  0
   72.1600   44.1700   48.6700 H   0  0  0  0  0  0  0  0  0  0  0  0
   72.5100   45.6300   49.7000 H   0  0  0  0  0  0  0  0  0  0  0  0
   70.5400   45.5600   48.6200 C   0  0  0  0  0  0  0  0  0  0  0  0
   71.4400   45.9000   48.2600 H   0  0  0  0  0  0  0  0  0  0  0  0
   69.9900   46.5100   48.8100 H   0  0  0  0  0  0  0  0  0  0  0  0
   69.7600   44.6100   47.7900 C   0  0  0  0  0  0  0  0  0  0  0  0
   68.8100   44.4200   48.2500 H   0  0  0  0  0  0  0  0  0  0  0  0
   70.2200   43.7100   47.3500 H   0  0  0  0  0  0  0  0  0  0  0  0
   69.3400   45.1800   46.5800 C   0  0  0  0  0  0  0  0  0  0  0  0
   70.2300   44.6500   45.8800 H   0  0  0  0  0  0  0  0  0  0  0  0
   69.3800   46.3400   46.7200 H   0  0  0  0  0  0  0  0  0  0  0  0
   67.8700   45.1300   45.7000 C   0  0  0  0  0  0  0  0  0  0  0  0
   67.1000   44.5000   45.9600 H   0  0  0  0  0  0  0  0  0  0  0  0
   68.4500   44.3400   46.2500 H   0  0  0  0  0  0  0  0  0  0  0  0
   67.6800   45.3300   43.5300 C   0  0  0  0  0  0  0  0  0  0  0  0
   68.6700   45.1200   42.7400 H   0  0  0  0  0  0  0  0  0  0  0  0
   67.5200   46.2600   43.1700 H   0  0  0  0  0  0  0  0  0  0  0  0
   67.1500   44.1000   42.7300 C   0  0  0  0  0  0  0  0  0  0  0  0
   66.1500   44.4000   42.6400 H   0  0  0  0  0  0  0  0  0  0  0  0
   67.1200   43.6600   43.6400 H   0  0  0  0  0  0  0  0  0  0  0  0
   67.8300   43.2100   41.6500 C   0  0  0  0  0  0  0  0  0  0  0  0
   67.2400   42.2600   41.4900 H   0  0  0  0  0  0  0  0  0  0  0  0
   68.9000   42.8700   41.7600 H   0  0  0  0  0  0  0  0  0  0  0  0
   67.6600   44.2300   40.6000 C   0  0  0  0  0  0  0  0  0  0  0  0
   68.2000   45.1800   40.7600 H   0  0  0  0  0  0  0  0  0  0  0  0
   66.6000   44.5100   40.6400 H   0  0  0  0  0  0  0  0  0  0  0  0
   67.9600   43.7100   39.3100 C   0  0  0  0  0  0  0  0  0  0  0  0
   67.8100   44.5400   38.6000 H   0  0  0  0  0  0  0  0  0  0  0  0
   67.5000   42.7600   39.0300 H   0  0  0  0  0  0  0  0  0  0  0  0
   69.3900   43.4300   39.1400 C   0  0  0  0  0  0  0  0  0  0  0  0
   70.0100   43.0800   39.9600 H   0  0  0  0  0  0  0  0  0  0  0  0
   69.6400   44.4500   38.7900 H   0  0  0  0  0  0  0  0  0  0  0  0
   69.8400   42.4500   38.2300 C   0  0  0  0  0  0  0  0  0  0  0  0
   69.6800   42.1700   37.2700 H   0  0  0  0  0  0  0  0  0  0  0  0
   69.0800   43.1100   37.8300 H   0  0  0  0  0  0  0  0  0  0  0  0
   70.7300   42.4700   37.5400 H   0  0  0  0  0  0  0  0  0  0  0  0
  1  2  1  6  0  0  0
  1  5  1  0  0  0  0
  3  1  1  0  0  0  0
  4  3  1  0  0  0  0
  5  7  1  0  0  0  0
  5  6  1  0  0  0  0
  7  8  1  0  0  0  0
  8 11  2  6  0  0  0
  8  9  1  0  0  0  0
 10  9  1  0  0  0  0
 12  8  1  0  0  0  0
 13 14  1  6  0  0  0
 13 19  1  0  0  0  0
 13 15  1  0  0  0  0
 15 16  1  0  0  0  0
 17 18  1  1  0  0  0
 17 13  1  0  0  0  0
 17 19  1  0  0  0  0
 20 23  1  0  0  0  0
 20 21  1  0  0  0  0
 22 20  1  0  0  0  0
 24 25  1  6  0  0  0
 24 17  1  0  0  0  0
 26 24  1  0  0  0  0
 26 27  1  0  0  0  0
 28  1  1  0  0  0  0
 28 29  1  1  0  0  0
 28 24  1  0  0  0  0
 30 34  1  6  0  0  0
 30 31  2  0  0  0  0
 30 33  1  0  0  0  0
 30 32  1  0  0  0  0
 33 28  1  0  0  0  0
 35 34  1  0  0  0  0
 35 37  1  0  0  0  0
 36 35  1  0  0  0  0
 38 39  1  1  0  0  0
 38 35  1  0  0  0  0
 40 38  1  0  0  0  0
 41 40  1  0  0  0  0
 41 42  2  0  0  0  0
 43 45  1  0  0  0  0
 43 44  1  0  0  0  0
 43 41  1  0  0  0  0
 46 38  1  0  0  0  0
 46 47  1  0  0  0  0
 48 46  1  0  0  0  0
 49 46  1  0  0  0  0
 50 51  2  0  0  0  0
 50 49  1  0  0  0  0
 52 53  1  0  0  0  0
 52 50  1  0  0  0  0
 54 52  1  0  0  0  0
 55 43  1  0  0  0  0
 56 55  1  0  0  0  0
 57 55  1  0  0  0  0
 58 55  1  0  0  0  0
 58 59  1  0  0  0  0
 58 60  1  0  0  0  0
 61 58  1  0  0  0  0
 62 61  1  0  0  0  0
 63 61  1  0  0  0  0
 64 61  1  0  0  0  0
 64 65  1  0  0  0  0
 64 66  1  0  0  0  0
 67 68  1  0  0  0  0
 67 64  1  0  0  0  0
 69 67  1  0  0  0  0
 70 71  1  0  0  0  0
 70 67  1  0  0  0  0
 72 70  1  0  0  0  0
 73 70  1  0  0  0  0
 73 74  1  0  0  0  0
 75 73  2  0  0  0  0
 76 75  1  0  0  0  0
 77 78  1  0  0  0  0
 77 79  1  0  0  0  0
 77 75  1  0  0  0  0
 80 77  1  0  0  0  0
 81 80  1  0  0  0  0
 82 80  1  0  0  0  0
 83 85  1  0  0  0  0
 83 80  1  0  0  0  0
 83 84  1  0  0  0  0
 86 83  1  0  0  0  0
 87 86  1  0  0  0  0
 88 86  1  0  0  0  0
 89 91  1  0  0  0  0
 89 86  1  0  0  0  0
 90 89  1  0  0  0  0
 92 93  1  0  0  0  0
 92 89  1  0  0  0  0
 94 92  1  0  0  0  0
 95 98  1  0  0  0  0
 95 92  1  0  0  0  0
 96 95  1  0  0  0  0
 97 95  1  0  0  0  0
 98100  1  0  0  0  0
 98101  1  0  0  0  0
 99 98  1  0  0  0  0
102104  1  0  0  0  0
102 52  1  0  0  0  0
103102  1  0  0  0  0
105106  1  0  0  0  0
105102  1  0  0  0  0
107105  1  0  0  0  0
108110  1  0  0  0  0
108105  1  0  0  0  0
109108  1  0  0  0  0
111113  1  0  0  0  0
112111  1  0  0  0  0
114115  1  0  0  0  0
114111  1  0  0  0  0
116114  1  0  0  0  0
117119  1  0  0  0  0
117114  1  0  0  0  0
118117  1  0  0  0  0
120121  1  0  0  0  0
120122  1  0  0  0  0
124123  1  0  0  0  0
125123  1  0  0  0  0
126123  1  0  0  0  0
126128  1  0  0  0  0
127126  1  0  0  0  0
129131  1  0  0  0  0
129126  1  0  0  0  0
130129  1  0  0  0  0
132134  1  0  0  0  0
132133  1  0  0  0  0
132129  1  0  0  0  0
135132  1  0  0  0  0
136135  1  0  0  0  0
137135  1  0  0  0  0
138139  1  0  0  0  0
140138  1  0  0  0  0
141138  1  0  0  0  0
142141  1  0  0  0  0
143141  1  0  0  0  0
144141  1  0  0  0  0
M  END
