POPI15
 OpenBabel02161614153D

140140  0  0  1  0  0  0  0  0999 V2000
   37.1900    9.9500   61.6800 C   0  0  2  0  0  0  0  0  0  0  0  0
   37.8400   10.7200   61.1700 H   0  0  0  0  0  0  0  0  0  0  0  0
   37.3500    8.6700   61.0000 O   0  0  0  0  0  0  0  0  0  0  0  0
   38.2000    8.3600   61.4000 H   0  0  0  0  0  0  0  0  0  0  0  0
   37.6700    9.8600   63.0900 C   0  0  2  0  0  0  0  0  0  0  0  0
   37.6700   10.8300   63.6500 H   0  0  0  0  0  0  0  0  0  0  0  0
   39.0100    9.4800   62.6900 O   0  0  0  0  0  0  0  0  0  0  0  0
   39.6000   10.1900   62.4500 H   0  0  0  0  0  0  0  0  0  0  0  0
   36.7400    8.8600   63.9000 C   0  0  1  0  0  0  0  0  0  0  0  0
   36.9000    7.8200   63.5400 H   0  0  0  0  0  0  0  0  0  0  0  0
   36.9700    8.8000   65.3100 O   0  0  0  0  0  0  0  0  0  0  0  0
   36.7200    9.5700   65.8100 H   0  0  0  0  0  0  0  0  0  0  0  0
   35.2800    9.2800   63.8200 C   0  0  2  0  0  0  0  0  0  0  0  0
   35.1600   10.2700   64.3100 H   0  0  0  0  0  0  0  0  0  0  0  0
   34.4200    8.2700   64.4200 O   0  0  0  0  0  0  0  0  0  0  0  0
   33.5200    8.4900   65.8000 P   0  0  0  0  0  0  0  0  0  0  0  0
   32.9300    7.1300   66.1700 O   0  0  0  0  0  0  0  0  0  0  0  0
   34.3400    9.0900   66.9400 O   0  0  0  0  0  0  0  0  0  0  0  0
   32.4900    9.5800   65.4500 O   0  0  0  0  0  0  0  0  0  0  0  0
   34.9000    9.3800   62.3400 C   0  0  1  0  0  0  0  0  0  0  0  0
   35.0800    8.3900   61.8700 H   0  0  0  0  0  0  0  0  0  0  0  0
   33.5500    9.7600   62.1500 O   0  0  0  0  0  0  0  0  0  0  0  0
   33.1600   10.0300   62.9900 H   0  0  0  0  0  0  0  0  0  0  0  0
   35.7900   10.4100   61.6400 C   0  0  2  0  0  0  0  0  0  0  0  0
   35.7300   11.3600   62.2300 H   0  0  0  0  0  0  0  0  0  0  0  0
   35.9800   11.7500   59.2200 P   0  0  2  0  0  0  0  0  0  0  0  0
   37.3500   11.4100   58.8000 O   0  0  0  0  0  0  0  0  0  0  0  0
   35.7800   13.0800   59.8100 O   0  0  0  0  0  0  0  0  0  0  0  0
   35.3900   10.6600   60.3100 O   0  0  0  0  0  0  0  0  0  0  0  0
   34.9600   11.5700   58.0200 O   0  0  0  0  0  0  0  0  0  0  0  0
   33.6300   11.0300   58.1800 C   0  0  0  0  0  0  0  0  0  0  0  0
   32.8900   11.7100   57.7400 H   0  0  0  0  0  0  0  0  0  0  0  0
   33.3500   10.8600   59.2500 H   0  0  0  0  0  0  0  0  0  0  0  0
   33.4600    9.6500   57.5100 C   0  0  2  0  0  0  0  0  0  0  0  0
   32.5700    9.1400   57.9300 H   0  0  0  0  0  0  0  0  0  0  0  0
   34.5800    8.9500   57.8700 O   0  0  0  0  0  0  0  0  0  0  0  0
   34.5400    7.7200   57.6900 C   0  0  0  0  0  0  0  0  0  0  0  0
   33.6000    6.9800   57.4300 O   0  0  0  0  0  0  0  0  0  0  0  0
   35.9100    7.3600   57.8200 C   0  0  0  0  0  0  0  0  0  0  0  0
   35.7900    6.2900   58.0400 H   0  0  0  0  0  0  0  0  0  0  0  0
   36.4300    7.7300   58.7300 H   0  0  0  0  0  0  0  0  0  0  0  0
   33.3000    9.7000   55.9800 C   0  0  0  0  0  0  0  0  0  0  0  0
   33.2100    8.6900   55.5200 H   0  0  0  0  0  0  0  0  0  0  0  0
   32.3400   10.2400   55.8900 H   0  0  0  0  0  0  0  0  0  0  0  0
   34.3800   10.4000   55.3400 O   0  0  0  0  0  0  0  0  0  0  0  0
   34.0000   10.9600   54.2100 C   0  0  0  0  0  0  0  0  0  0  0  0
   32.9000   10.8600   53.7000 O   0  0  0  0  0  0  0  0  0  0  0  0
   35.1400   11.7500   53.6400 C   0  0  0  0  0  0  0  0  0  0  0  0
   35.7900   11.0200   53.1200 H   0  0  0  0  0  0  0  0  0  0  0  0
   35.7200   12.2400   54.4500 H   0  0  0  0  0  0  0  0  0  0  0  0
   36.5000    7.8900   56.4900 C   0  0  0  0  0  0  0  0  0  0  0  0
   37.6300    7.8200   56.6900 H   0  0  0  0  0  0  0  0  0  0  0  0
   36.3700    8.9700   56.2100 H   0  0  0  0  0  0  0  0  0  0  0  0
   36.1300    7.2300   55.1300 C   0  0  0  0  0  0  0  0  0  0  0  0
   36.3600    6.2900   54.5500 H   0  0  0  0  0  0  0  0  0  0  0  0
   37.0200    7.7700   54.9300 H   0  0  0  0  0  0  0  0  0  0  0  0
   35.0200    6.9500   54.2600 C   0  0  0  0  0  0  0  0  0  0  0  0
   34.2500    6.8900   55.0200 H   0  0  0  0  0  0  0  0  0  0  0  0
   34.9100    5.9700   53.6500 H   0  0  0  0  0  0  0  0  0  0  0  0
   35.4100    7.9900   53.2700 C   0  0  0  0  0  0  0  0  0  0  0  0
   36.1900    7.7000   52.5400 H   0  0  0  0  0  0  0  0  0  0  0  0
   35.7800    8.8900   53.8300 H   0  0  0  0  0  0  0  0  0  0  0  0
   34.2200    7.9800   52.4600 C   0  0  0  0  0  0  0  0  0  0  0  0
   33.4800    8.3300   53.2200 H   0  0  0  0  0  0  0  0  0  0  0  0
   34.0200    6.9100   52.2000 H   0  0  0  0  0  0  0  0  0  0  0  0
   34.3800    8.8300   51.2200 C   0  0  0  0  0  0  0  0  0  0  0  0
   34.6400    9.8600   51.5500 H   0  0  0  0  0  0  0  0  0  0  0  0
   33.3500    8.8400   50.8300 H   0  0  0  0  0  0  0  0  0  0  0  0
   35.3400    8.3500   50.1600 C   0  0  0  0  0  0  0  0  0  0  0  0
   36.4100    8.5800   50.3700 H   0  0  0  0  0  0  0  0  0  0  0  0
   34.9900    7.7400   49.0100 C   0  0  0  0  0  0  0  0  0  0  0  0
   35.8000    7.3900   48.3500 H   0  0  0  0  0  0  0  0  0  0  0  0
   33.5800    7.4100   48.5300 C   0  0  0  0  0  0  0  0  0  0  0  0
   32.9100    7.3100   49.4100 H   0  0  0  0  0  0  0  0  0  0  0  0
   33.5700    6.3900   48.0700 H   0  0  0  0  0  0  0  0  0  0  0  0
   32.8200    8.3800   47.5700 C   0  0  0  0  0  0  0  0  0  0  0  0
   32.8500    9.4100   47.9900 H   0  0  0  0  0  0  0  0  0  0  0  0
   31.7600    8.0300   47.5400 H   0  0  0  0  0  0  0  0  0  0  0  0
   33.2300    8.4600   46.0900 C   0  0  0  0  0  0  0  0  0  0  0  0
   33.2800    7.4300   45.6600 H   0  0  0  0  0  0  0  0  0  0  0  0
   34.2100    8.9700   46.0000 H   0  0  0  0  0  0  0  0  0  0  0  0
   32.2200    9.3000   45.2900 C   0  0  0  0  0  0  0  0  0  0  0  0
   32.2000   10.3200   45.7300 H   0  0  0  0  0  0  0  0  0  0  0  0
   31.2000    8.8700   45.3600 H   0  0  0  0  0  0  0  0  0  0  0  0
   32.6500    9.5000   43.8400 C   0  0  0  0  0  0  0  0  0  0  0  0
   32.9700    8.5300   43.3800 H   0  0  0  0  0  0  0  0  0  0  0  0
   33.5300   10.1900   43.8400 H   0  0  0  0  0  0  0  0  0  0  0  0
   31.6300   10.1700   42.9300 C   0  0  0  0  0  0  0  0  0  0  0  0
   31.6400   11.2700   43.1600 H   0  0  0  0  0  0  0  0  0  0  0  0
   30.5900    9.8100   43.1000 H   0  0  0  0  0  0  0  0  0  0  0  0
   32.0300    9.9200   41.4900 C   0  0  0  0  0  0  0  0  0  0  0  0
   31.1500    9.6200   40.8800 H   0  0  0  0  0  0  0  0  0  0  0  0
   32.7900    9.1100   41.4200 H   0  0  0  0  0  0  0  0  0  0  0  0
   32.7000   11.1500   40.9300 C   0  0  0  0  0  0  0  0  0  0  0  0
   33.6600   11.4200   41.3800 H   0  0  0  0  0  0  0  0  0  0  0  0
   32.7700   11.1000   39.8200 H   0  0  0  0  0  0  0  0  0  0  0  0
   32.1000   12.0000   41.3100 H   0  0  0  0  0  0  0  0  0  0  0  0
   34.6100   12.8100   52.6700 C   0  0  0  0  0  0  0  0  0  0  0  0
   33.9400   13.5300   53.2000 H   0  0  0  0  0  0  0  0  0  0  0  0
   34.0500   12.3300   51.8400 H   0  0  0  0  0  0  0  0  0  0  0  0
   35.7800   13.5700   52.0700 C   0  0  0  0  0  0  0  0  0  0  0  0
   36.3400   12.8300   51.4600 H   0  0  0  0  0  0  0  0  0  0  0  0
   36.4700   13.8700   52.9000 H   0  0  0  0  0  0  0  0  0  0  0  0
   35.3300   14.7500   51.2000 C   0  0  0  0  0  0  0  0  0  0  0  0
   35.8900   15.6700   51.4700 H   0  0  0  0  0  0  0  0  0  0  0  0
   34.2400   14.9800   51.3200 H   0  0  0  0  0  0  0  0  0  0  0  0
   35.5900   14.4400   49.7300 C   0  0  0  0  0  0  0  0  0  0  0  0
   36.5900   13.9600   49.6400 H   0  0  0  0  0  0  0  0  0  0  0  0
   35.6200   15.3900   49.1600 H   0  0  0  0  0  0  0  0  0  0  0  0
   34.5400   13.5500   49.0600 C   0  0  0  0  0  0  0  0  0  0  0  0
   33.5400   14.0200   49.1800 H   0  0  0  0  0  0  0  0  0  0  0  0
   34.5000   12.5400   49.5400 H   0  0  0  0  0  0  0  0  0  0  0  0
   34.8200   13.4200   47.5500 C   0  0  0  0  0  0  0  0  0  0  0  0
   35.2800   14.3800   47.2200 H   0  0  0  0  0  0  0  0  0  0  0  0
   33.8400   13.3300   47.0300 H   0  0  0  0  0  0  0  0  0  0  0  0
   35.7100   12.2100   47.2200 C   0  0  0  0  0  0  0  0  0  0  0  0
   35.3600   11.3400   47.8200 H   0  0  0  0  0  0  0  0  0  0  0  0
   36.7500   12.4500   47.5300 H   0  0  0  0  0  0  0  0  0  0  0  0
   35.7000   11.7200   45.7600 C   0  0  0  0  0  0  0  0  0  0  0  0
   34.6900   11.2900   45.5400 H   0  0  0  0  0  0  0  0  0  0  0  0
   36.4600   10.9300   45.6100 H   0  0  0  0  0  0  0  0  0  0  0  0
   35.9800   12.8100   44.7300 C   0  0  0  0  0  0  0  0  0  0  0  0
   37.0200   13.1600   44.9000 H   0  0  0  0  0  0  0  0  0  0  0  0
   35.2600   13.6300   44.9200 H   0  0  0  0  0  0  0  0  0  0  0  0
   35.8700   12.3100   43.2800 C   0  0  0  0  0  0  0  0  0  0  0  0
   34.9200   11.7400   43.1300 H   0  0  0  0  0  0  0  0  0  0  0  0
   36.7100   11.6100   43.0900 H   0  0  0  0  0  0  0  0  0  0  0  0
   35.9200   13.4600   42.2800 C   0  0  0  0  0  0  0  0  0  0  0  0
   36.7000   14.1700   42.6500 H   0  0  0  0  0  0  0  0  0  0  0  0
   34.9500   14.0000   42.3200 H   0  0  0  0  0  0  0  0  0  0  0  0
   36.2400   13.0900   40.8300 C   0  0  0  0  0  0  0  0  0  0  0  0
   35.4000   12.5200   40.3700 H   0  0  0  0  0  0  0  0  0  0  0  0
   37.1600   12.4600   40.7500 H   0  0  0  0  0  0  0  0  0  0  0  0
   36.4300   14.3500   39.9900 C   0  0  0  0  0  0  0  0  0  0  0  0
   35.5700   15.0200   40.2400 H   0  0  0  0  0  0  0  0  0  0  0  0
   36.3600   14.0900   38.9100 H   0  0  0  0  0  0  0  0  0  0  0  0
   37.7400   15.1000   40.2000 C   0  0  0  0  0  0  0  0  0  0  0  0
   38.5900   14.4100   40.0100 H   0  0  0  0  0  0  0  0  0  0  0  0
   37.8400   15.9200   39.4600 H   0  0  0  0  0  0  0  0  0  0  0  0
   37.8300   15.5200   41.2200 H   0  0  0  0  0  0  0  0  0  0  0  0
  1  2  1  6  0  0  0
  1  5  1  0  0  0  0
  3  4  1  0  0  0  0
  3  1  1  0  0  0  0
  5  6  1  1  0  0  0
  5  9  1  0  0  0  0
  7  5  1  0  0  0  0
  8  7  1  0  0  0  0
  9 10  1  6  0  0  0
  9 11  1  0  0  0  0
 11 12  1  0  0  0  0
 13  9  1  0  0  0  0
 13 14  1  1  0  0  0
 13 15  1  0  0  0  0
 15 16  1  0  0  0  0
 16 17  1  0  0  0  0
 16 18  1  0  0  0  0
 19 16  2  0  0  0  0
 20 21  1  6  0  0  0
 20 13  1  0  0  0  0
 22 20  1  0  0  0  0
 22 23  1  0  0  0  0
 24  1  1  0  0  0  0
 24 25  1  1  0  0  0
 24 20  1  0  0  0  0
 26 30  1  6  0  0  0
 26 28  1  0  0  0  0
 26 29  1  0  0  0  0
 27 26  2  0  0  0  0
 29 24  1  0  0  0  0
 30 31  1  0  0  0  0
 31 33  1  0  0  0  0
 32 31  1  0  0  0  0
 34 36  1  0  0  0  0
 34 35  1  1  0  0  0
 34 31  1  0  0  0  0
 37 39  1  0  0  0  0
 37 36  1  0  0  0  0
 38 37  2  0  0  0  0
 39 40  1  0  0  0  0
 39 41  1  0  0  0  0
 42 34  1  0  0  0  0
 43 42  1  0  0  0  0
 44 42  1  0  0  0  0
 45 42  1  0  0  0  0
 46 45  1  0  0  0  0
 47 46  2  0  0  0  0
 48 46  1  0  0  0  0
 48 50  1  0  0  0  0
 49 48  1  0  0  0  0
 51 52  1  0  0  0  0
 51 39  1  0  0  0  0
 53 51  1  0  0  0  0
 54 51  1  0  0  0  0
 55 54  1  0  0  0  0
 56 54  1  0  0  0  0
 57 58  1  0  0  0  0
 57 54  1  0  0  0  0
 59 57  1  0  0  0  0
 60 62  1  0  0  0  0
 60 57  1  0  0  0  0
 61 60  1  0  0  0  0
 63 64  1  0  0  0  0
 63 60  1  0  0  0  0
 65 63  1  0  0  0  0
 66 67  1  0  0  0  0
 66 63  1  0  0  0  0
 68 66  1  0  0  0  0
 69 70  1  0  0  0  0
 69 66  1  0  0  0  0
 71 69  2  0  0  0  0
 72 71  1  0  0  0  0
 73 71  1  0  0  0  0
 73 74  1  0  0  0  0
 75 73  1  0  0  0  0
 76 77  1  0  0  0  0
 76 73  1  0  0  0  0
 78 76  1  0  0  0  0
 79 76  1  0  0  0  0
 80 79  1  0  0  0  0
 81 79  1  0  0  0  0
 82 84  1  0  0  0  0
 82 83  1  0  0  0  0
 82 79  1  0  0  0  0
 85 87  1  0  0  0  0
 85 82  1  0  0  0  0
 86 85  1  0  0  0  0
 88 90  1  0  0  0  0
 88 89  1  0  0  0  0
 88 85  1  0  0  0  0
 91 88  1  0  0  0  0
 92 91  1  0  0  0  0
 93 91  1  0  0  0  0
 94 97  1  0  0  0  0
 94 95  1  0  0  0  0
 94 91  1  0  0  0  0
 96 94  1  0  0  0  0
 98 99  1  0  0  0  0
 98 48  1  0  0  0  0
100 98  1  0  0  0  0
101 98  1  0  0  0  0
101103  1  0  0  0  0
102101  1  0  0  0  0
104106  1  0  0  0  0
104105  1  0  0  0  0
104101  1  0  0  0  0
107104  1  0  0  0  0
108107  1  0  0  0  0
109107  1  0  0  0  0
110111  1  0  0  0  0
110112  1  0  0  0  0
110107  1  0  0  0  0
113110  1  0  0  0  0
114113  1  0  0  0  0
115113  1  0  0  0  0
116118  1  0  0  0  0
116113  1  0  0  0  0
116117  1  0  0  0  0
119116  1  0  0  0  0
120119  1  0  0  0  0
121119  1  0  0  0  0
122123  1  0  0  0  0
122124  1  0  0  0  0
122119  1  0  0  0  0
125122  1  0  0  0  0
126125  1  0  0  0  0
127125  1  0  0  0  0
128130  1  0  0  0  0
128129  1  0  0  0  0
128125  1  0  0  0  0
131128  1  0  0  0  0
132131  1  0  0  0  0
133131  1  0  0  0  0
134137  1  0  0  0  0
134135  1  0  0  0  0
134131  1  0  0  0  0
136134  1  0  0  0  0
137140  1  0  0  0  0
138137  1  0  0  0  0
139137  1  0  0  0  0
M  END
