PNPI35
 OpenBabel02161614153D

143143  0  0  1  0  0  0  0  0999 V2000
   23.7700   48.4600   62.3200 C   0  0  2  0  0  0  0  0  0  0  0  0
   24.3800   49.3500   62.0400 H   0  0  0  0  0  0  0  0  0  0  0  0
   24.4000   47.2800   61.7900 O   0  0  0  0  0  0  0  0  0  0  0  0
   25.2800   47.3200   62.1900 H   0  0  0  0  0  0  0  0  0  0  0  0
   23.6900   48.3800   63.8400 C   0  0  2  0  0  0  0  0  0  0  0  0
   23.1200   49.2700   64.2300 H   0  0  0  0  0  0  0  0  0  0  0  0
   25.0100   48.3700   64.3800 O   0  0  0  0  0  0  0  0  0  0  0  0
   25.7400   49.7500   64.8700 P   0  0  0  0  0  0  0  0  0  0  0  0
   26.8200   49.4800   65.9100 O   0  0  0  0  0  0  0  0  0  0  0  0
   24.7300   50.5900   65.6200 O   0  0  0  0  0  0  0  0  0  0  0  0
   26.2400   50.4600   63.6300 O   0  0  0  0  0  0  0  0  0  0  0  0
   22.9500   47.1200   64.2600 C   0  0  1  0  0  0  0  0  0  0  0  0
   23.4900   46.2500   63.8200 H   0  0  0  0  0  0  0  0  0  0  0  0
   22.9300   47.0300   65.6900 O   0  0  0  0  0  0  0  0  0  0  0  0
   23.6900   45.7800   66.5000 P   0  0  0  0  0  0  0  0  0  0  0  0
   23.1200   44.4200   66.0500 O   0  0  0  0  0  0  0  0  0  0  0  0
   23.4300   45.9300   68.0000 O   0  0  0  0  0  0  0  0  0  0  0  0
   25.1700   45.7200   66.1700 O   0  0  0  0  0  0  0  0  0  0  0  0
   21.5300   47.2000   63.6800 C   0  0  2  0  0  0  0  0  0  0  0  0
   21.0600   48.1100   64.1000 H   0  0  0  0  0  0  0  0  0  0  0  0
   20.8300   45.9800   63.9900 O   0  0  0  0  0  0  0  0  0  0  0  0
   19.5200   46.1600   64.9800 P   0  0  1  0  0  0  0  0  0  0  0  0
   19.8300   46.4900   66.4900 O   0  0  0  0  0  0  0  0  0  0  0  0
   19.1900   46.0000   66.9900 H   0  0  0  0  0  0  0  0  0  0  0  0
   18.7500   47.3900   64.5300 O   0  0  0  0  0  0  0  0  0  0  0  0
   18.7800   44.8200   65.0700 O   0  0  0  0  0  0  0  0  0  0  0  0
   21.5600   47.3600   62.1600 C   0  0  1  0  0  0  0  0  0  0  0  0
   22.0100   46.4400   61.7100 H   0  0  0  0  0  0  0  0  0  0  0  0
   20.2300   47.5300   61.6400 O   0  0  0  0  0  0  0  0  0  0  0  0
   20.1000   46.8200   61.0000 H   0  0  0  0  0  0  0  0  0  0  0  0
   22.3600   48.5700   61.7600 C   0  0  2  0  0  0  0  0  0  0  0  0
   21.8800   49.4600   62.2400 H   0  0  0  0  0  0  0  0  0  0  0  0
   22.0200   50.0700   59.5600 P   0  0  2  0  0  0  0  0  0  0  0  0
   22.8700   51.2000   59.9600 O   0  0  0  0  0  0  0  0  0  0  0  0
   20.5500   50.2800   59.8100 O   0  0  0  0  0  0  0  0  0  0  0  0
   22.4500   48.6900   60.3300 O   0  0  0  0  0  0  0  0  0  0  0  0
   22.2400   49.7000   58.0300 O   0  0  0  0  0  0  0  0  0  0  0  0
   21.6100   48.6300   57.3300 C   0  0  0  0  0  0  0  0  0  0  0  0
   21.1500   49.0500   56.4100 H   0  0  0  0  0  0  0  0  0  0  0  0
   20.7900   48.1700   57.9200 H   0  0  0  0  0  0  0  0  0  0  0  0
   22.6500   47.5300   56.9300 C   0  0  2  0  0  0  0  0  0  0  0  0
   23.0500   47.1300   57.8900 H   0  0  0  0  0  0  0  0  0  0  0  0
   23.6900   48.1700   56.1800 O   0  0  0  0  0  0  0  0  0  0  0  0
   24.7800   47.4800   56.0000 C   0  0  0  0  0  0  0  0  0  0  0  0
   25.0800   46.4000   56.4600 O   0  0  0  0  0  0  0  0  0  0  0  0
   25.6300   48.3400   55.1300 C   0  0  0  0  0  0  0  0  0  0  0  0
   26.6600   47.9800   55.0200 H   0  0  0  0  0  0  0  0  0  0  0  0
   25.6800   49.3100   55.6800 H   0  0  0  0  0  0  0  0  0  0  0  0
   22.0800   46.3200   56.1200 C   0  0  0  0  0  0  0  0  0  0  0  0
   22.8600   45.5300   56.0400 H   0  0  0  0  0  0  0  0  0  0  0  0
   21.2700   45.9000   56.7400 H   0  0  0  0  0  0  0  0  0  0  0  0
   21.5300   46.7300   54.8500 O   0  0  0  0  0  0  0  0  0  0  0  0
   22.1800   46.3100   53.7600 C   0  0  0  0  0  0  0  0  0  0  0  0
   23.1400   45.5500   53.7500 O   0  0  0  0  0  0  0  0  0  0  0  0
   21.5100   46.8700   52.5200 C   0  0  0  0  0  0  0  0  0  0  0  0
   21.3900   47.9600   52.6600 H   0  0  0  0  0  0  0  0  0  0  0  0
   20.5000   46.4100   52.4400 H   0  0  0  0  0  0  0  0  0  0  0  0
   25.0400   48.6300   53.7700 C   0  0  0  0  0  0  0  0  0  0  0  0
   24.3000   49.4500   53.9600 H   0  0  0  0  0  0  0  0  0  0  0  0
   24.6300   47.8100   53.1600 H   0  0  0  0  0  0  0  0  0  0  0  0
   26.0900   49.2000   52.8900 C   0  0  0  0  0  0  0  0  0  0  0  0
   26.9900   48.5900   52.6500 H   0  0  0  0  0  0  0  0  0  0  0  0
   26.5200   49.8800   53.6500 H   0  0  0  0  0  0  0  0  0  0  0  0
   25.4500   49.7000   51.5900 C   0  0  0  0  0  0  0  0  0  0  0  0
   25.2600   48.8800   50.9000 H   0  0  0  0  0  0  0  0  0  0  0  0
   26.1600   50.2300   50.9200 H   0  0  0  0  0  0  0  0  0  0  0  0
   24.0800   50.4500   51.8000 C   0  0  0  0  0  0  0  0  0  0  0  0
   24.2200   51.2400   52.6100 H   0  0  0  0  0  0  0  0  0  0  0  0
   23.2800   49.8300   52.1600 H   0  0  0  0  0  0  0  0  0  0  0  0
   23.6300   51.1200   50.5100 C   0  0  0  0  0  0  0  0  0  0  0  0
   24.6800   51.2400   50.3500 H   0  0  0  0  0  0  0  0  0  0  0  0
   23.0300   52.0400   50.5600 H   0  0  0  0  0  0  0  0  0  0  0  0
   23.2500   50.4700   49.1700 C   0  0  0  0  0  0  0  0  0  0  0  0
   22.2600   50.1500   49.5200 H   0  0  0  0  0  0  0  0  0  0  0  0
   24.0300   49.6900   49.0800 H   0  0  0  0  0  0  0  0  0  0  0  0
   23.0800   51.2000   47.8400 C   0  0  0  0  0  0  0  0  0  0  0  0
   22.5600   52.1800   47.9000 H   0  0  0  0  0  0  0  0  0  0  0  0
   23.8700   51.0300   46.7500 C   0  0  0  0  0  0  0  0  0  0  0  0
   23.7200   51.7300   45.9100 H   0  0  0  0  0  0  0  0  0  0  0  0
   25.1000   50.1300   46.6000 C   0  0  0  0  0  0  0  0  0  0  0  0
   26.0100   50.5700   47.0700 H   0  0  0  0  0  0  0  0  0  0  0  0
   25.4200   50.0800   45.5500 H   0  0  0  0  0  0  0  0  0  0  0  0
   25.1100   48.7100   46.9600 C   0  0  0  0  0  0  0  0  0  0  0  0
   25.6500   48.4700   47.9000 H   0  0  0  0  0  0  0  0  0  0  0  0
   24.5200   47.7900   46.1900 C   0  0  0  0  0  0  0  0  0  0  0  0
   24.6700   46.7400   46.4600 H   0  0  0  0  0  0  0  0  0  0  0  0
   23.7800   48.1100   44.9000 C   0  0  0  0  0  0  0  0  0  0  0  0
   24.2700   48.9400   44.3500 H   0  0  0  0  0  0  0  0  0  0  0  0
   22.7600   48.5000   45.1400 H   0  0  0  0  0  0  0  0  0  0  0  0
   23.6800   46.9100   43.9800 C   0  0  0  0  0  0  0  0  0  0  0  0
   23.5600   45.9400   44.4800 H   0  0  0  0  0  0  0  0  0  0  0  0
   23.7400   46.9300   42.6400 C   0  0  0  0  0  0  0  0  0  0  0  0
   23.6300   45.9700   42.1100 H   0  0  0  0  0  0  0  0  0  0  0  0
   23.9100   48.1400   41.7500 C   0  0  0  0  0  0  0  0  0  0  0  0
   23.4900   49.0400   42.2600 H   0  0  0  0  0  0  0  0  0  0  0  0
   23.2800   48.0000   40.8400 H   0  0  0  0  0  0  0  0  0  0  0  0
   25.3600   48.3800   41.2700 C   0  0  0  0  0  0  0  0  0  0  0  0
   26.1000   48.3800   42.0900 H   0  0  0  0  0  0  0  0  0  0  0  0
   25.6500   47.7500   40.4100 H   0  0  0  0  0  0  0  0  0  0  0  0
   25.5200   49.3600   40.8100 H   0  0  0  0  0  0  0  0  0  0  0  0
   22.2700   46.5300   51.2200 C   0  0  0  0  0  0  0  0  0  0  0  0
   21.8700   45.5600   50.8500 H   0  0  0  0  0  0  0  0  0  0  0  0
   23.3600   46.4100   51.4100 H   0  0  0  0  0  0  0  0  0  0  0  0
   22.0900   47.5900   50.1200 C   0  0  0  0  0  0  0  0  0  0  0  0
   22.6400   47.3000   49.2000 H   0  0  0  0  0  0  0  0  0  0  0  0
   22.6200   48.4800   50.5100 H   0  0  0  0  0  0  0  0  0  0  0  0
   20.6200   47.9400   49.7900 C   0  0  0  0  0  0  0  0  0  0  0  0
   20.6000   48.9400   49.2900 H   0  0  0  0  0  0  0  0  0  0  0  0
   20.0300   48.0500   50.7200 H   0  0  0  0  0  0  0  0  0  0  0  0
   19.9300   46.8900   48.9000 C   0  0  0  0  0  0  0  0  0  0  0  0
   18.8300   46.9300   49.0500 H   0  0  0  0  0  0  0  0  0  0  0  0
   20.2800   45.9000   49.2400 H   0  0  0  0  0  0  0  0  0  0  0  0
   20.2200   46.9700   47.3800 C   0  0  0  0  0  0  0  0  0  0  0  0
   21.2500   46.5800   47.2200 H   0  0  0  0  0  0  0  0  0  0  0  0
   20.2000   48.0300   47.0400 H   0  0  0  0  0  0  0  0  0  0  0  0
   19.2100   46.1200   46.5700 C   0  0  0  0  0  0  0  0  0  0  0  0
   18.2300   46.6400   46.5400 H   0  0  0  0  0  0  0  0  0  0  0  0
   19.0600   45.1500   47.0900 H   0  0  0  0  0  0  0  0  0  0  0  0
   19.6000   45.7800   45.1200 C   0  0  0  0  0  0  0  0  0  0  0  0
   18.7900   45.1100   44.7400 H   0  0  0  0  0  0  0  0  0  0  0  0
   20.5500   45.2000   45.0600 H   0  0  0  0  0  0  0  0  0  0  0  0
   19.7000   47.0400   44.2500 C   0  0  0  0  0  0  0  0  0  0  0  0
   20.6500   47.5700   44.4900 H   0  0  0  0  0  0  0  0  0  0  0  0
   18.8400   47.7100   44.4600 H   0  0  0  0  0  0  0  0  0  0  0  0
   19.7100   46.7300   42.7600 C   0  0  0  0  0  0  0  0  0  0  0  0
   18.7600   46.2200   42.5000 H   0  0  0  0  0  0  0  0  0  0  0  0
   20.5700   46.0400   42.5800 H   0  0  0  0  0  0  0  0  0  0  0  0
   19.8600   47.9700   41.8600 C   0  0  0  0  0  0  0  0  0  0  0  0
   20.6100   48.6900   42.2400 H   0  0  0  0  0  0  0  0  0  0  0  0
   18.8600   48.4700   41.8500 H   0  0  0  0  0  0  0  0  0  0  0  0
   20.2700   47.5000   40.4600 C   0  0  0  0  0  0  0  0  0  0  0  0
   19.5500   46.7300   40.1700 H   0  0  0  0  0  0  0  0  0  0  0  0
   21.1600   46.8400   40.5300 H   0  0  0  0  0  0  0  0  0  0  0  0
   20.5500   48.6100   39.3900 C   0  0  0  0  0  0  0  0  0  0  0  0
   21.0700   48.0600   38.5600 H   0  0  0  0  0  0  0  0  0  0  0  0
   21.2000   49.3900   39.8100 H   0  0  0  0  0  0  0  0  0  0  0  0
   19.4900   49.4900   38.6700 C   0  0  0  0  0  0  0  0  0  0  0  0
   18.5800   49.1100   38.3400 H   0  0  0  0  0  0  0  0  0  0  0  0
   19.7900   49.7100   37.6700 H   0  0  0  0  0  0  0  0  0  0  0  0
   18.7900   50.7100   39.1000 C   0  0  0  0  0  0  0  0  0  0  0  0
   19.5300   51.4600   38.7600 H   0  0  0  0  0  0  0  0  0  0  0  0
   17.8600   50.8000   38.4500 H   0  0  0  0  0  0  0  0  0  0  0  0
   18.5500   50.5300   40.1600 H   0  0  0  0  0  0  0  0  0  0  0  0
  1  2  1  6  0  0  0
  1  5  1  0  0  0  0
  3  4  1  0  0  0  0
  3  1  1  0  0  0  0
  5  6  1  1  0  0  0
  5 12  1  0  0  0  0
  5  7  1  0  0  0  0
  7  8  1  0  0  0  0
  8 10  1  0  0  0  0
  8  9  1  0  0  0  0
 11  8  2  0  0  0  0
 12 13  1  6  0  0  0
 12 14  1  0  0  0  0
 14 15  1  0  0  0  0
 15 17  1  0  0  0  0
 16 15  2  0  0  0  0
 18 15  1  0  0  0  0
 19 21  1  0  0  0  0
 19 20  1  1  0  0  0
 19 12  1  0  0  0  0
 22 21  1  6  0  0  0
 22 26  1  0  0  0  0
 22 23  1  0  0  0  0
 23 24  1  0  0  0  0
 25 22  2  0  0  0  0
 27 28  1  6  0  0  0
 27 19  1  0  0  0  0
 29 27  1  0  0  0  0
 30 29  1  0  0  0  0
 31 27  1  0  0  0  0
 31 32  1  1  0  0  0
 31  1  1  0  0  0  0
 33 37  1  6  0  0  0
 33 35  2  0  0  0  0
 33 34  1  0  0  0  0
 33 36  1  0  0  0  0
 36 31  1  0  0  0  0
 38 40  1  0  0  0  0
 38 37  1  0  0  0  0
 39 38  1  0  0  0  0
 41 38  1  0  0  0  0
 41 42  1  1  0  0  0
 43 41  1  0  0  0  0
 44 43  1  0  0  0  0
 44 45  2  0  0  0  0
 46 48  1  0  0  0  0
 46 44  1  0  0  0  0
 47 46  1  0  0  0  0
 49 51  1  0  0  0  0
 49 41  1  0  0  0  0
 50 49  1  0  0  0  0
 52 49  1  0  0  0  0
 53 52  1  0  0  0  0
 54 53  2  0  0  0  0
 55 56  1  0  0  0  0
 55 53  1  0  0  0  0
 57 55  1  0  0  0  0
 58 59  1  0  0  0  0
 58 46  1  0  0  0  0
 60 58  1  0  0  0  0
 61 63  1  0  0  0  0
 61 58  1  0  0  0  0
 62 61  1  0  0  0  0
 64 67  1  0  0  0  0
 64 61  1  0  0  0  0
 65 64  1  0  0  0  0
 66 64  1  0  0  0  0
 67 69  1  0  0  0  0
 67 68  1  0  0  0  0
 70 72  1  0  0  0  0
 70 67  1  0  0  0  0
 71 70  1  0  0  0  0
 73 74  1  0  0  0  0
 73 70  1  0  0  0  0
 75 73  1  0  0  0  0
 76 77  1  0  0  0  0
 76 73  1  0  0  0  0
 78 76  1  0  0  0  0
 79 78  1  0  0  0  0
 80 78  1  0  0  0  0
 80 83  1  0  0  0  0
 80 81  1  0  0  0  0
 82 80  1  0  0  0  0
 83 84  1  0  0  0  0
 85 86  1  0  0  0  0
 85 83  2  0  0  0  0
 87 89  1  0  0  0  0
 87 85  1  0  0  0  0
 88 87  1  0  0  0  0
 90 91  1  0  0  0  0
 90 87  1  0  0  0  0
 92 90  2  0  0  0  0
 93 92  1  0  0  0  0
 94 95  1  0  0  0  0
 94 92  1  0  0  0  0
 96 94  1  0  0  0  0
 97 94  1  0  0  0  0
 97 98  1  0  0  0  0
 99 97  1  0  0  0  0
100 97  1  0  0  0  0
101103  1  0  0  0  0
101 55  1  0  0  0  0
102101  1  0  0  0  0
104106  1  0  0  0  0
104101  1  0  0  0  0
105104  1  0  0  0  0
107104  1  0  0  0  0
107109  1  0  0  0  0
108107  1  0  0  0  0
110111  1  0  0  0  0
110112  1  0  0  0  0
110107  1  0  0  0  0
113110  1  0  0  0  0
114113  1  0  0  0  0
115113  1  0  0  0  0
116118  1  0  0  0  0
116113  1  0  0  0  0
117116  1  0  0  0  0
119116  1  0  0  0  0
120119  1  0  0  0  0
121119  1  0  0  0  0
122124  1  0  0  0  0
122123  1  0  0  0  0
122119  1  0  0  0  0
125122  1  0  0  0  0
126125  1  0  0  0  0
127125  1  0  0  0  0
128129  1  0  0  0  0
128125  1  0  0  0  0
130128  1  0  0  0  0
131133  1  0  0  0  0
131128  1  0  0  0  0
132131  1  0  0  0  0
134136  1  0  0  0  0
134131  1  0  0  0  0
135134  1  0  0  0  0
137140  1  0  0  0  0
137134  1  0  0  0  0
138137  1  0  0  0  0
139137  1  0  0  0  0
140143  1  0  0  0  0
141140  1  0  0  0  0
142140  1  0  0  0  0
M  END
