DMPI13
 OpenBabel02161614153D

124122  0  0  1  0  0  0  0  0999 V2000
   47.5500   30.5800   60.5500 C   0  0  2  0  0  0  0  0  0  0  0  0
   47.2000   29.5600   60.2500 H   0  0  0  0  0  0  0  0  0  0  0  0
   46.6600   31.5200   60.0100 O   0  0  0  0  0  0  0  0  0  0  0  0
   45.8900   30.9900   59.7600 H   0  0  0  0  0  0  0  0  0  0  0  0
   47.5500   30.7100   62.0700 C   0  0  2  0  0  0  0  0  0  0  0  0
   48.1900   29.9500   62.4500 H   0  0  0  0  0  0  0  0  0  0  0  0
   46.2600   30.4800   62.6400 O   0  0  0  0  0  0  0  0  0  0  0  0
   45.7400   28.9200   62.8500 P   0  0  0  0  0  0  0  0  0  0  0  0
   45.6100   28.2500   61.4700 O   0  0  0  0  0  0  0  0  0  0  0  0
   44.4000   29.0300   63.5900 O   0  0  0  0  0  0  0  0  0  0  0  0
   46.8400   28.2200   63.6500 O   0  0  0  0  0  0  0  0  0  0  0  0
   48.1600   32.0300   62.5400 C   0  0  1  0  0  0  0  0  0  0  0  0
   47.5300   32.8600   62.1600 H   0  0  0  0  0  0  0  0  0  0  0  0
   48.2500   32.1300   63.9800 O   0  0  0  0  0  0  0  0  0  0  0  0
   47.3700   32.4200   64.2500 H   0  0  0  0  0  0  0  0  0  0  0  0
   49.5700   32.1300   62.0000 C   0  0  2  0  0  0  0  0  0  0  0  0
   50.1400   31.2500   62.4000 H   0  0  0  0  0  0  0  0  0  0  0  0
   50.2500   33.3000   62.4800 O   0  0  0  0  0  0  0  0  0  0  0  0
   51.1100   32.9600   62.7000 H   0  0  0  0  0  0  0  0  0  0  0  0
   49.6300   32.0200   60.4900 C   0  0  1  0  0  0  0  0  0  0  0  0
   49.0800   32.8600   60.0400 H   0  0  0  0  0  0  0  0  0  0  0  0
   51.0100   32.1400   60.1100 O   0  0  0  0  0  0  0  0  0  0  0  0
   51.1800   33.0800   59.9700 H   0  0  0  0  0  0  0  0  0  0  0  0
   48.9900   30.7100   60.0300 C   0  0  2  0  0  0  0  0  0  0  0  0
   49.6000   29.8600   60.4100 H   0  0  0  0  0  0  0  0  0  0  0  0
   49.0600   29.3900   57.6800 P   0  0  2  0  0  0  0  0  0  0  0  0
   50.3800   28.8300   58.0400 O   0  0  0  0  0  0  0  0  0  0  0  0
   47.9500   28.4400   57.9200 O   0  0  0  0  0  0  0  0  0  0  0  0
   49.0800   30.0200   56.2300 O   0  0  0  0  0  0  0  0  0  0  0  0
   48.9300   30.7100   58.6000 O   0  0  0  0  0  0  0  0  0  0  0  0
   47.9200   30.3900   55.4800 C   0  0  0  0  0  0  0  0  0  0  0  0
   48.2400   31.1300   54.7200 H   0  0  0  0  0  0  0  0  0  0  0  0
   47.1200   30.8500   56.1000 H   0  0  0  0  0  0  0  0  0  0  0  0
   47.3800   29.1900   54.6800 C   0  0  2  0  0  0  0  0  0  0  0  0
   46.7000   28.6200   55.3700 H   0  0  0  0  0  0  0  0  0  0  0  0
   48.5600   28.4600   54.2900 O   0  0  0  0  0  0  0  0  0  0  0  0
   48.3800   27.2200   53.9400 C   0  0  0  0  0  0  0  0  0  0  0  0
   47.3200   26.6500   53.9400 O   0  0  0  0  0  0  0  0  0  0  0  0
   49.6600   26.6800   53.3100 C   0  0  0  0  0  0  0  0  0  0  0  0
   49.7300   25.5900   53.5100 H   0  0  0  0  0  0  0  0  0  0  0  0
   50.5100   27.1900   53.7900 H   0  0  0  0  0  0  0  0  0  0  0  0
   46.5300   29.6500   53.4300 C   0  0  0  0  0  0  0  0  0  0  0  0
   45.7400   30.3400   53.8100 H   0  0  0  0  0  0  0  0  0  0  0  0
   46.0300   28.7700   52.9700 H   0  0  0  0  0  0  0  0  0  0  0  0
   47.3600   30.3100   52.4500 O   0  0  0  0  0  0  0  0  0  0  0  0
   46.6600   30.6300   51.3600 C   0  0  0  0  0  0  0  0  0  0  0  0
   45.4500   30.5700   51.2600 O   0  0  0  0  0  0  0  0  0  0  0  0
   47.6200   31.0800   50.2600 C   0  0  0  0  0  0  0  0  0  0  0  0
   47.9200   30.2000   49.6500 H   0  0  0  0  0  0  0  0  0  0  0  0
   48.5300   31.4700   50.7700 H   0  0  0  0  0  0  0  0  0  0  0  0
   49.6800   27.0500   51.8100 C   0  0  0  0  0  0  0  0  0  0  0  0
   50.7300   27.2900   51.5400 H   0  0  0  0  0  0  0  0  0  0  0  0
   49.1000   27.9900   51.6600 H   0  0  0  0  0  0  0  0  0  0  0  0
   49.1400   25.9600   50.8800 C   0  0  0  0  0  0  0  0  0  0  0  0
   48.2800   25.4300   51.3700 H   0  0  0  0  0  0  0  0  0  0  0  0
   49.9400   25.2100   50.7000 H   0  0  0  0  0  0  0  0  0  0  0  0
   48.6200   26.4900   49.5300 C   0  0  0  0  0  0  0  0  0  0  0  0
   47.7000   27.0900   49.7200 H   0  0  0  0  0  0  0  0  0  0  0  0
   48.3100   25.6200   48.9000 H   0  0  0  0  0  0  0  0  0  0  0  0
   49.5900   27.3700   48.7600 C   0  0  0  0  0  0  0  0  0  0  0  0
   50.4100   26.7900   48.3400 H   0  0  0  0  0  0  0  0  0  0  0  0
   50.0000   28.1700   49.4000 H   0  0  0  0  0  0  0  0  0  0  0  0
   48.9200   27.9400   47.5200 C   0  0  0  0  0  0  0  0  0  0  0  0
   48.2200   28.7200   47.8300 H   0  0  0  0  0  0  0  0  0  0  0  0
   48.3900   27.1200   46.9700 H   0  0  0  0  0  0  0  0  0  0  0  0
   49.8600   28.5700   46.5400 C   0  0  0  0  0  0  0  0  0  0  0  0
   50.7800   29.0100   47.0200 H   0  0  0  0  0  0  0  0  0  0  0  0
   49.3800   29.3300   45.8900 H   0  0  0  0  0  0  0  0  0  0  0  0
   50.2200   27.5300   45.5500 C   0  0  0  0  0  0  0  0  0  0  0  0
   50.3700   26.5400   45.8700 H   0  0  0  0  0  0  0  0  0  0  0  0
   51.1700   27.9400   45.5600 H   0  0  0  0  0  0  0  0  0  0  0  0
   49.6800   27.5900   44.1700 C   0  0  0  0  0  0  0  0  0  0  0  0
   49.5400   28.6400   43.8300 H   0  0  0  0  0  0  0  0  0  0  0  0
   48.7700   26.9800   44.1600 H   0  0  0  0  0  0  0  0  0  0  0  0
   50.5400   27.0700   43.0800 C   0  0  0  0  0  0  0  0  0  0  0  0
   51.0600   26.1100   43.1700 H   0  0  0  0  0  0  0  0  0  0  0  0
   51.4700   27.5700   43.0400 H   0  0  0  0  0  0  0  0  0  0  0  0
   49.7000   27.3300   41.8400 C   0  0  0  0  0  0  0  0  0  0  0  0
   48.8400   26.7900   41.4600 H   0  0  0  0  0  0  0  0  0  0  0  0
   50.0700   26.2900   41.6200 H   0  0  0  0  0  0  0  0  0  0  0  0
   50.2600   28.7700   41.2000 C   0  0  0  0  0  0  0  0  0  0  0  0
   51.3200   28.7600   41.3100 H   0  0  0  0  0  0  0  0  0  0  0  0
   50.1100   29.4800   41.9700 H   0  0  0  0  0  0  0  0  0  0  0  0
   49.9600   29.8100   40.0100 C   0  0  0  0  0  0  0  0  0  0  0  0
   50.7400   30.1200   39.2300 H   0  0  0  0  0  0  0  0  0  0  0  0
   50.4400   29.6500   39.0200 H   0  0  0  0  0  0  0  0  0  0  0  0
   48.9600   29.4200   39.7300 H   0  0  0  0  0  0  0  0  0  0  0  0
   47.0300   32.2100   49.4000 C   0  0  0  0  0  0  0  0  0  0  0  0
   46.4300   32.8700   50.0600 H   0  0  0  0  0  0  0  0  0  0  0  0
   46.2900   31.8300   48.6600 H   0  0  0  0  0  0  0  0  0  0  0  0
   48.1200   33.0700   48.7500 C   0  0  0  0  0  0  0  0  0  0  0  0
   48.7700   33.4900   49.5500 H   0  0  0  0  0  0  0  0  0  0  0  0
   47.6400   33.9300   48.2300 H   0  0  0  0  0  0  0  0  0  0  0  0
   49.0100   32.3100   47.7900 C   0  0  0  0  0  0  0  0  0  0  0  0
   48.3800   31.6300   47.1700 H   0  0  0  0  0  0  0  0  0  0  0  0
   49.7400   31.6800   48.3500 H   0  0  0  0  0  0  0  0  0  0  0  0
   49.8000   33.2300   46.8600 C   0  0  0  0  0  0  0  0  0  0  0  0
   50.3400   34.0000   47.4600 H   0  0  0  0  0  0  0  0  0  0  0  0
   49.1000   33.7400   46.1700 H   0  0  0  0  0  0  0  0  0  0  0  0
   50.8300   32.3800   46.1200 C   0  0  0  0  0  0  0  0  0  0  0  0
   50.3900   31.3900   45.9100 H   0  0  0  0  0  0  0  0  0  0  0  0
   51.6600   32.2000   46.8600 H   0  0  0  0  0  0  0  0  0  0  0  0
   51.4600   33.0000   44.8700 C   0  0  0  0  0  0  0  0  0  0  0  0
   52.2400   32.2900   44.5100 H   0  0  0  0  0  0  0  0  0  0  0  0
   51.9600   33.9400   45.2000 H   0  0  0  0  0  0  0  0  0  0  0  0
   50.5500   33.3700   43.6800 C   0  0  0  0  0  0  0  0  0  0  0  0
   51.1400   34.0500   43.0100 H   0  0  0  0  0  0  0  0  0  0  0  0
   49.6600   33.9500   44.0000 H   0  0  0  0  0  0  0  0  0  0  0  0
   50.1200   32.1700   42.8200 C   0  0  0  0  0  0  0  0  0  0  0  0
   51.0200   31.5300   42.6900 H   0  0  0  0  0  0  0  0  0  0  0  0
   49.8200   32.5300   41.8100 H   0  0  0  0  0  0  0  0  0  0  0  0
   48.9300   31.3700   43.3800 C   0  0  0  0  0  0  0  0  0  0  0  0
   49.1600   31.0100   44.3900 H   0  0  0  0  0  0  0  0  0  0  0  0
   48.8100   30.4800   42.7400 H   0  0  0  0  0  0  0  0  0  0  0  0
   47.5500   32.0700   43.3800 C   0  0  0  0  0  0  0  0  0  0  0  0
   47.3900   32.4400   42.3400 H   0  0  0  0  0  0  0  0  0  0  0  0
   47.6000   32.9600   44.0400 H   0  0  0  0  0  0  0  0  0  0  0  0
   46.3600   31.1500   43.7400 C   0  0  0  0  0  0  0  0  0  0  0  0
   45.3900   31.7000   43.6900 H   0  0  0  0  0  0  0  0  0  0  0  0
   46.4600   30.8300   44.8100 H   0  0  0  0  0  0  0  0  0  0  0  0
   46.2600   29.9300   42.8100 C   0  0  0  0  0  0  0  0  0  0  0  0
   46.2200   30.2700   41.7600 H   0  0  0  0  0  0  0  0  0  0  0  0
   47.1600   29.2800   42.9300 H   0  0  0  0  0  0  0  0  0  0  0  0
   45.3700   29.3000   43.0000 H   0  0  0  0  0  0  0  0  0  0  0  0
  1  2  1  6  0  0  0
  1  5  1  0  0  0  0
  3  1  1  0  0  0  0
  4  3  1  0  0  0  0
  5  6  1  1  0  0  0
  5 12  1  0  0  0  0
  5  7  1  0  0  0  0
  7  8  1  0  0  0  0
  8 10  1  0  0  0  0
  8 11  1  0  0  0  0
  9  8  2  0  0  0  0
 12 13  1  6  0  0  0
 12 14  1  0  0  0  0
 14 15  1  0  0  0  0
 16 17  1  1  0  0  0
 16 18  1  0  0  0  0
 16 12  1  0  0  0  0
 18 19  1  0  0  0  0
 20 21  1  6  0  0  0
 20 16  1  0  0  0  0
 22 20  1  0  0  0  0
 23 22  1  0  0  0  0
 24 25  1  1  0  0  0
 24 20  1  0  0  0  0
 24  1  1  0  0  0  0
 26 29  1  6  0  0  0
 26 28  2  0  0  0  0
 26 27  1  0  0  0  0
 26 30  1  0  0  0  0
 30 24  1  0  0  0  0
 31 33  1  0  0  0  0
 31 29  1  0  0  0  0
 32 31  1  0  0  0  0
 34 35  1  1  0  0  0
 34 31  1  0  0  0  0
 36 34  1  0  0  0  0
 37 36  1  0  0  0  0
 38 37  2  0  0  0  0
 39 40  1  0  0  0  0
 39 41  1  0  0  0  0
 39 37  1  0  0  0  0
 42 43  1  0  0  0  0
 42 34  1  0  0  0  0
 44 42  1  0  0  0  0
 45 42  1  0  0  0  0
 46 45  1  0  0  0  0
 47 46  2  0  0  0  0
 48 50  1  0  0  0  0
 48 46  1  0  0  0  0
 49 48  1  0  0  0  0
 51 39  1  0  0  0  0
 52 51  1  0  0  0  0
 53 51  1  0  0  0  0
 54 55  1  0  0  0  0
 54 51  1  0  0  0  0
 56 54  1  0  0  0  0
 57 58  1  0  0  0  0
 57 54  1  0  0  0  0
 59 57  1  0  0  0  0
 60 62  1  0  0  0  0
 60 57  1  0  0  0  0
 61 60  1  0  0  0  0
 63 64  1  0  0  0  0
 63 60  1  0  0  0  0
 65 63  1  0  0  0  0
 66 67  1  0  0  0  0
 66 63  1  0  0  0  0
 68 66  1  0  0  0  0
 69 71  1  0  0  0  0
 69 70  1  0  0  0  0
 69 66  1  0  0  0  0
 72 69  1  0  0  0  0
 73 72  1  0  0  0  0
 74 72  1  0  0  0  0
 75 76  1  0  0  0  0
 75 72  1  0  0  0  0
 77 75  1  0  0  0  0
 78 75  1  0  0  0  0
 79 78  1  0  0  0  0
 80 78  1  0  0  0  0
 81 82  1  0  0  0  0
 81 78  1  0  0  0  0
 81 83  1  0  0  0  0
 86 84  1  0  0  0  0
 87 84  1  0  0  0  0
 88 89  1  0  0  0  0
 88 48  1  0  0  0  0
 90 88  1  0  0  0  0
 91 88  1  0  0  0  0
 91 92  1  0  0  0  0
 93 91  1  0  0  0  0
 94 96  1  0  0  0  0
 94 91  1  0  0  0  0
 95 94  1  0  0  0  0
 97 98  1  0  0  0  0
 97 94  1  0  0  0  0
 99 97  1  0  0  0  0
100 97  1  0  0  0  0
100102  1  0  0  0  0
101100  1  0  0  0  0
103105  1  0  0  0  0
103100  1  0  0  0  0
104103  1  0  0  0  0
106108  1  0  0  0  0
106103  1  0  0  0  0
107106  1  0  0  0  0
109112  1  0  0  0  0
109106  1  0  0  0  0
110109  1  0  0  0  0
111109  1  0  0  0  0
112115  1  0  0  0  0
112113  1  0  0  0  0
114112  1  0  0  0  0
115118  1  0  0  0  0
115117  1  0  0  0  0
116115  1  0  0  0  0
118120  1  0  0  0  0
119118  1  0  0  0  0
121123  1  0  0  0  0
121124  1  0  0  0  0
121118  1  0  0  0  0
122121  1  0  0  0  0
M  END
