PLPI2C
 OpenBabel02161614153D

142142  0  0  1  0  0  0  0  0999 V2000
   -0.8600   51.8400   62.3300 C   0  0  2  0  0  0  0  0  0  0  0  0
   -1.6100   51.1900   61.8200 H   0  0  0  0  0  0  0  0  0  0  0  0
   -1.3700   53.1500   62.4400 O   0  0  0  0  0  0  0  0  0  0  0  0
   -1.6900   53.4300   61.5700 H   0  0  0  0  0  0  0  0  0  0  0  0
   -0.3200   51.2100   63.6300 C   0  0  2  0  0  0  0  0  0  0  0  0
    0.2400   50.3100   63.2200 H   0  0  0  0  0  0  0  0  0  0  0  0
   -1.4300   50.9200   64.4200 O   0  0  0  0  0  0  0  0  0  0  0  0
   -1.0800   49.4900   65.0400 P   0  0  1  0  0  0  0  0  0  0  0  0
   -1.7000   49.8300   66.3600 O   0  0  0  0  0  0  0  0  0  0  0  0
   -1.0600   50.5800   66.4700 H   0  0  0  0  0  0  0  0  0  0  0  0
   -1.9800   48.6500   64.1900 O   0  0  0  0  0  0  0  0  0  0  0  0
    0.4200   49.3600   65.1400 O   0  0  0  0  0  0  0  0  0  0  0  0
    0.7900   52.0300   64.3300 C   0  0  1  0  0  0  0  0  0  0  0  0
    0.0800   52.8500   64.4800 H   0  0  0  0  0  0  0  0  0  0  0  0
    1.4600   51.8000   65.5900 O   0  0  0  0  0  0  0  0  0  0  0  0
    1.8000   53.0200   66.6700 P   0  0  0  0  0  0  0  0  0  0  0  0
    3.1600   53.5900   66.8600 O   0  0  0  0  0  0  0  0  0  0  0  0
    0.6400   54.0100   66.8200 O   0  0  0  0  0  0  0  0  0  0  0  0
    1.6300   52.0800   67.7800 O   0  0  0  0  0  0  0  0  0  0  0  0
    1.8800   51.9300   63.3600 C   0  0  2  0  0  0  0  0  0  0  0  0
    2.3600   50.9400   63.3500 H   0  0  0  0  0  0  0  0  0  0  0  0
    2.9200   52.7400   63.8300 O   0  0  0  0  0  0  0  0  0  0  0  0
    3.4100   52.3600   64.5800 H   0  0  0  0  0  0  0  0  0  0  0  0
    1.3600   52.4000   62.0100 C   0  0  1  0  0  0  0  0  0  0  0  0
    0.9700   53.4500   62.2100 H   0  0  0  0  0  0  0  0  0  0  0  0
    2.3100   51.9900   60.9500 O   0  0  0  0  0  0  0  0  0  0  0  0
    2.1700   52.5600   60.1400 H   0  0  0  0  0  0  0  0  0  0  0  0
    0.2400   51.7900   61.4600 C   0  0  2  0  0  0  0  0  0  0  0  0
    0.5300   50.7900   61.5600 H   0  0  0  0  0  0  0  0  0  0  0  0
   -0.0400   51.4700   58.8100 P   0  0  2  0  0  0  0  0  0  0  0  0
   -0.8300   50.2600   58.9600 O   0  0  0  0  0  0  0  0  0  0  0  0
    1.4100   51.3600   58.6900 O   0  0  0  0  0  0  0  0  0  0  0  0
   -0.1700   52.2900   60.1700 O   0  0  0  0  0  0  0  0  0  0  0  0
   -0.4600   52.3600   57.6700 O   0  0  0  0  0  0  0  0  0  0  0  0
   -1.4600   53.3100   57.9300 C   0  0  0  0  0  0  0  0  0  0  0  0
   -1.8300   53.3400   58.9800 H   0  0  0  0  0  0  0  0  0  0  0  0
   -2.2700   52.9800   57.2900 H   0  0  0  0  0  0  0  0  0  0  0  0
   -1.0600   54.7000   57.4500 C   0  0  2  0  0  0  0  0  0  0  0  0
   -1.8400   55.4000   57.6300 H   0  0  0  0  0  0  0  0  0  0  0  0
   -0.6700   54.6300   56.0800 O   0  0  0  0  0  0  0  0  0  0  0  0
   -0.7400   55.7500   55.4100 C   0  0  0  0  0  0  0  0  0  0  0  0
   -1.0600   56.8400   55.8600 O   0  0  0  0  0  0  0  0  0  0  0  0
   -0.5100   55.4300   53.9300 C   0  0  0  0  0  0  0  0  0  0  0  0
    0.5800   55.3700   53.7700 H   0  0  0  0  0  0  0  0  0  0  0  0
   -0.9200   56.2700   53.3300 H   0  0  0  0  0  0  0  0  0  0  0  0
    0.0000   55.3100   58.2400 C   0  0  0  0  0  0  0  0  0  0  0  0
   -0.0200   56.4200   58.0300 H   0  0  0  0  0  0  0  0  0  0  0  0
   -0.3000   55.3400   59.3200 H   0  0  0  0  0  0  0  0  0  0  0  0
    1.1500   54.4100   57.9100 O   0  0  0  0  0  0  0  0  0  0  0  0
    2.2000   55.1200   57.9100 C   0  0  0  0  0  0  0  0  0  0  0  0
    2.0300   56.3100   58.1000 O   0  0  0  0  0  0  0  0  0  0  0  0
    3.6000   54.2500   57.7000 C   0  0  0  0  0  0  0  0  0  0  0  0
    3.2500   53.2500   58.0000 H   0  0  0  0  0  0  0  0  0  0  0  0
    4.3600   54.6000   58.4400 H   0  0  0  0  0  0  0  0  0  0  0  0
   -1.1400   54.0900   53.4200 C   0  0  0  0  0  0  0  0  0  0  0  0
   -2.2100   54.0200   53.7200 H   0  0  0  0  0  0  0  0  0  0  0  0
   -0.6100   53.2400   53.9100 H   0  0  0  0  0  0  0  0  0  0  0  0
   -1.0000   54.0100   51.8900 C   0  0  0  0  0  0  0  0  0  0  0  0
    0.0600   54.2300   51.6400 H   0  0  0  0  0  0  0  0  0  0  0  0
   -1.6200   54.8200   51.4600 H   0  0  0  0  0  0  0  0  0  0  0  0
   -1.3300   52.6500   51.2200 C   0  0  0  0  0  0  0  0  0  0  0  0
   -2.4200   52.4500   51.2900 H   0  0  0  0  0  0  0  0  0  0  0  0
   -0.8000   51.8500   51.7700 H   0  0  0  0  0  0  0  0  0  0  0  0
   -0.8700   52.6000   49.7400 C   0  0  0  0  0  0  0  0  0  0  0  0
    0.2200   52.7900   49.7100 H   0  0  0  0  0  0  0  0  0  0  0  0
   -1.3700   53.4000   49.1600 H   0  0  0  0  0  0  0  0  0  0  0  0
   -1.1400   51.2600   49.0300 C   0  0  0  0  0  0  0  0  0  0  0  0
   -2.2300   51.0300   49.0800 H   0  0  0  0  0  0  0  0  0  0  0  0
   -0.6100   50.4600   49.6000 H   0  0  0  0  0  0  0  0  0  0  0  0
   -0.6800   51.2000   47.5600 C   0  0  0  0  0  0  0  0  0  0  0  0
   -0.6900   50.1300   47.2300 H   0  0  0  0  0  0  0  0  0  0  0  0
    0.3800   51.5300   47.4900 H   0  0  0  0  0  0  0  0  0  0  0  0
   -1.5100   52.0100   46.6100 C   0  0  0  0  0  0  0  0  0  0  0  0
   -2.3600   52.5600   47.0400 H   0  0  0  0  0  0  0  0  0  0  0  0
   -1.3500   52.0100   45.2900 C   0  0  0  0  0  0  0  0  0  0  0  0
   -2.0000   52.6500   44.6600 H   0  0  0  0  0  0  0  0  0  0  0  0
   -0.3200   51.2100   44.5500 C   0  0  0  0  0  0  0  0  0  0  0  0
   -0.7100   50.1700   44.4200 H   0  0  0  0  0  0  0  0  0  0  0  0
    0.6500   51.1000   45.0900 H   0  0  0  0  0  0  0  0  0  0  0  0
   -0.0800   51.8100   43.2200 C   0  0  0  0  0  0  0  0  0  0  0  0
   -0.4200   52.8500   43.0200 H   0  0  0  0  0  0  0  0  0  0  0  0
    0.5700   51.1100   42.3000 C   0  0  0  0  0  0  0  0  0  0  0  0
    0.8900   51.5200   41.3500 H   0  0  0  0  0  0  0  0  0  0  0  0
    1.1200   49.7700   42.4100 C   0  0  0  0  0  0  0  0  0  0  0  0
    0.4400   49.0400   41.9500 H   0  0  0  0  0  0  0  0  0  0  0  0
    1.2700   49.5500   43.4800 H   0  0  0  0  0  0  0  0  0  0  0  0
    2.4300   49.8200   41.6500 C   0  0  0  0  0  0  0  0  0  0  0  0
    3.0700   50.5000   42.1600 H   0  0  0  0  0  0  0  0  0  0  0  0
    2.3300   49.8200   40.5400 H   0  0  0  0  0  0  0  0  0  0  0  0
    3.4600   48.8800   42.0500 C   0  0  0  0  0  0  0  0  0  0  0  0
    2.7500   48.3000   41.5300 H   0  0  0  0  0  0  0  0  0  0  0  0
    3.5100   48.7600   43.1600 H   0  0  0  0  0  0  0  0  0  0  0  0
    4.6300   48.3800   41.3300 C   0  0  0  0  0  0  0  0  0  0  0  0
    5.1700   47.5400   41.7000 H   0  0  0  0  0  0  0  0  0  0  0  0
    5.1900   49.1200   41.7600 H   0  0  0  0  0  0  0  0  0  0  0  0
    4.7000   48.4800   39.8700 C   0  0  0  0  0  0  0  0  0  0  0  0
    4.1400   47.7000   39.3300 H   0  0  0  0  0  0  0  0  0  0  0  0
    4.1900   49.3800   39.7300 H   0  0  0  0  0  0  0  0  0  0  0  0
    5.7700   48.5500   39.5900 H   0  0  0  0  0  0  0  0  0  0  0  0
    4.3400   54.0400   56.2600 C   0  0  0  0  0  0  0  0  0  0  0  0
    5.3400   53.5700   56.2200 H   0  0  0  0  0  0  0  0  0  0  0  0
    4.9100   54.9400   55.8500 H   0  0  0  0  0  0  0  0  0  0  0  0
    3.2600   53.7500   55.1800 C   0  0  0  0  0  0  0  0  0  0  0  0
    2.3200   54.3800   55.2200 H   0  0  0  0  0  0  0  0  0  0  0  0
    2.8800   52.7400   55.3700 H   0  0  0  0  0  0  0  0  0  0  0  0
    3.7800   53.9600   53.7600 C   0  0  0  0  0  0  0  0  0  0  0  0
    4.8400   53.6400   53.7900 H   0  0  0  0  0  0  0  0  0  0  0  0
    3.7500   55.0400   53.4700 H   0  0  0  0  0  0  0  0  0  0  0  0
    3.0400   53.1400   52.7000 C   0  0  0  0  0  0  0  0  0  0  0  0
    1.9700   53.4500   52.6600 H   0  0  0  0  0  0  0  0  0  0  0  0
    3.0600   52.0800   53.0500 H   0  0  0  0  0  0  0  0  0  0  0  0
    3.7400   53.3300   51.3500 C   0  0  0  0  0  0  0  0  0  0  0  0
    4.8300   53.2700   51.5300 H   0  0  0  0  0  0  0  0  0  0  0  0
    3.5200   54.3700   50.9900 H   0  0  0  0  0  0  0  0  0  0  0  0
    3.4100   52.3100   50.2500 C   0  0  0  0  0  0  0  0  0  0  0  0
    2.3200   52.1000   50.2200 H   0  0  0  0  0  0  0  0  0  0  0  0
    3.9200   51.3600   50.5500 H   0  0  0  0  0  0  0  0  0  0  0  0
    3.9200   52.7400   48.8600 C   0  0  0  0  0  0  0  0  0  0  0  0
    5.0300   52.6800   48.8700 H   0  0  0  0  0  0  0  0  0  0  0  0
    3.6400   53.7900   48.6500 H   0  0  0  0  0  0  0  0  0  0  0  0
    3.4000   51.8400   47.7300 C   0  0  0  0  0  0  0  0  0  0  0  0
    2.3000   51.8200   47.7300 H   0  0  0  0  0  0  0  0  0  0  0  0
    3.7800   50.8100   47.9100 H   0  0  0  0  0  0  0  0  0  0  0  0
    3.8700   52.2500   46.3500 C   0  0  0  0  0  0  0  0  0  0  0  0
    3.5800   51.5000   45.5600 H   0  0  0  0  0  0  0  0  0  0  0  0
    4.9800   52.3300   46.3300 H   0  0  0  0  0  0  0  0  0  0  0  0
    3.3000   53.5800   45.9000 C   0  0  0  0  0  0  0  0  0  0  0  0
    3.3500   54.4300   46.6000 H   0  0  0  0  0  0  0  0  0  0  0  0
    2.2500   53.4400   45.5200 H   0  0  0  0  0  0  0  0  0  0  0  0
    4.2200   53.9900   44.8100 C   0  0  0  0  0  0  0  0  0  0  0  0
    4.3600   53.0000   44.3800 H   0  0  0  0  0  0  0  0  0  0  0  0
    5.2500   54.3500   44.9200 H   0  0  0  0  0  0  0  0  0  0  0  0
    3.5100   55.0300   44.0700 C   0  0  0  0  0  0  0  0  0  0  0  0
    3.7400   55.8400   44.7100 H   0  0  0  0  0  0  0  0  0  0  0  0
    2.4200   54.9900   44.2400 H   0  0  0  0  0  0  0  0  0  0  0  0
    4.0400   55.2800   42.6700 C   0  0  0  0  0  0  0  0  0  0  0  0
    5.1500   55.3200   42.6400 H   0  0  0  0  0  0  0  0  0  0  0  0
    3.4200   56.0900   42.2700 H   0  0  0  0  0  0  0  0  0  0  0  0
    4.0200   54.7300   41.3600 C   0  0  0  0  0  0  0  0  0  0  0  0
    4.5800   54.8700   40.5100 H   0  0  0  0  0  0  0  0  0  0  0  0
    4.7400   54.0500   41.5900 H   0  0  0  0  0  0  0  0  0  0  0  0
    3.1300   54.3800   40.7200 H   0  0  0  0  0  0  0  0  0  0  0  0
  1  2  1  6  0  0  0
  1  3  1  0  0  0  0
  1  5  1  0  0  0  0
  4  3  1  0  0  0  0
  5  6  1  6  0  0  0
  5 13  1  0  0  0  0
  5  7  1  0  0  0  0
  7  8  1  0  0  0  0
  8 11  2  6  0  0  0
  8 12  1  0  0  0  0
  8  9  1  0  0  0  0
  9 10  1  0  0  0  0
 13 14  1  1  0  0  0
 13 15  1  0  0  0  0
 15 16  1  0  0  0  0
 16 18  2  0  0  0  0
 16 17  1  0  0  0  0
 16 19  1  0  0  0  0
 20 21  1  6  0  0  0
 20 22  1  0  0  0  0
 20 13  1  0  0  0  0
 22 23  1  0  0  0  0
 24 25  1  6  0  0  0
 24 20  1  0  0  0  0
 26 24  1  0  0  0  0
 27 26  1  0  0  0  0
 28 29  1  6  0  0  0
 28 24  1  0  0  0  0
 28  1  1  0  0  0  0
 30 34  1  6  0  0  0
 30 31  1  0  0  0  0
 30 33  1  0  0  0  0
 32 30  2  0  0  0  0
 33 28  1  0  0  0  0
 34 35  1  0  0  0  0
 35 36  1  0  0  0  0
 37 35  1  0  0  0  0
 38 39  1  1  0  0  0
 38 35  1  0  0  0  0
 38 46  1  0  0  0  0
 40 38  1  0  0  0  0
 41 42  2  0  0  0  0
 41 40  1  0  0  0  0
 43 41  1  0  0  0  0
 44 43  1  0  0  0  0
 45 43  1  0  0  0  0
 46 48  1  0  0  0  0
 47 46  1  0  0  0  0
 49 46  1  0  0  0  0
 50 49  1  0  0  0  0
 50 51  2  0  0  0  0
 52 50  1  0  0  0  0
 52 53  1  0  0  0  0
 52 54  1  0  0  0  0
 55 56  1  0  0  0  0
 55 57  1  0  0  0  0
 55 43  1  0  0  0  0
 58 55  1  0  0  0  0
 59 58  1  0  0  0  0
 60 58  1  0  0  0  0
 61 62  1  0  0  0  0
 61 63  1  0  0  0  0
 61 58  1  0  0  0  0
 64 61  1  0  0  0  0
 65 64  1  0  0  0  0
 66 64  1  0  0  0  0
 67 68  1  0  0  0  0
 67 69  1  0  0  0  0
 67 64  1  0  0  0  0
 70 67  1  0  0  0  0
 71 70  1  0  0  0  0
 72 70  1  0  0  0  0
 73 74  1  0  0  0  0
 73 70  1  0  0  0  0
 75 73  2  0  0  0  0
 76 75  1  0  0  0  0
 77 79  1  0  0  0  0
 77 75  1  0  0  0  0
 78 77  1  0  0  0  0
 80 77  1  0  0  0  0
 81 80  1  0  0  0  0
 82 84  1  0  0  0  0
 82 80  2  0  0  0  0
 83 82  1  0  0  0  0
 84 86  1  0  0  0  0
 85 84  1  0  0  0  0
 87 90  1  0  0  0  0
 87 88  1  0  0  0  0
 87 84  1  0  0  0  0
 89 87  1  0  0  0  0
 90 92  1  0  0  0  0
 91 90  1  0  0  0  0
 93 94  1  0  0  0  0
 93 95  1  0  0  0  0
 93 90  1  0  0  0  0
 96 93  1  0  0  0  0
 97 96  1  0  0  0  0
 98 96  1  0  0  0  0
 99 96  1  0  0  0  0
100 52  1  0  0  0  0
101100  1  0  0  0  0
102100  1  0  0  0  0
103104  1  0  0  0  0
103105  1  0  0  0  0
103100  1  0  0  0  0
106107  1  0  0  0  0
106103  1  0  0  0  0
108106  1  0  0  0  0
109111  1  0  0  0  0
109106  1  0  0  0  0
110109  1  0  0  0  0
112113  1  0  0  0  0
112109  1  0  0  0  0
114112  1  0  0  0  0
115117  1  0  0  0  0
115112  1  0  0  0  0
116115  1  0  0  0  0
118119  1  0  0  0  0
118115  1  0  0  0  0
120118  1  0  0  0  0
121123  1  0  0  0  0
121118  1  0  0  0  0
122121  1  0  0  0  0
124121  1  0  0  0  0
125124  1  0  0  0  0
126124  1  0  0  0  0
127124  1  0  0  0  0
127128  1  0  0  0  0
129127  1  0  0  0  0
130132  1  0  0  0  0
130127  1  0  0  0  0
131130  1  0  0  0  0
133135  1  0  0  0  0
133134  1  0  0  0  0
133130  1  0  0  0  0
136133  1  0  0  0  0
137136  1  0  0  0  0
138136  1  0  0  0  0
139141  1  0  0  0  0
139136  1  0  0  0  0
140139  1  0  0  0  0
142139  1  0  0  0  0
M  END
