DMPG
 OpenBabel02161614153D

111110  0  0  1  0  0  0  0  0999 V2000
   40.0600   26.0500   57.0000 C   0  0  0  0  0  0  0  0  0  0  0  0
   40.7700   26.7100   57.5500 H   0  0  0  0  0  0  0  0  0  0  0  0
   39.0200   26.2800   57.3100 H   0  0  0  0  0  0  0  0  0  0  0  0
   40.1800   26.3000   55.6100 O   0  0  0  0  0  0  0  0  0  0  0  0
   39.9400   27.2300   55.5300 H   0  0  0  0  0  0  0  0  0  0  0  0
   40.5400   24.6600   57.3300 C   0  0  2  0  0  0  0  0  0  0  0  0
   40.3900   24.5000   58.4200 H   0  0  0  0  0  0  0  0  0  0  0  0
   41.9300   24.6200   57.0700 O   0  0  0  0  0  0  0  0  0  0  0  0
   41.9500   24.3900   56.1300 H   0  0  0  0  0  0  0  0  0  0  0  0
   39.7800   23.5800   56.5600 C   0  0  0  0  0  0  0  0  0  0  0  0
   39.9500   23.6600   55.4600 H   0  0  0  0  0  0  0  0  0  0  0  0
   38.6900   23.7200   56.7100 H   0  0  0  0  0  0  0  0  0  0  0  0
   40.9900   21.2200   56.3900 P   0  0  2  0  0  0  0  0  0  0  0  0
   40.5100   19.9400   56.9600 O   0  0  0  0  0  0  0  0  0  0  0  0
   42.4400   21.4700   56.4100 O   0  0  0  0  0  0  0  0  0  0  0  0
   40.1700   22.3400   57.1300 O   0  0  0  0  0  0  0  0  0  0  0  0
   40.4900   21.3400   54.8900 O   0  0  0  0  0  0  0  0  0  0  0  0
   39.1200   20.9700   54.7100 C   0  0  0  0  0  0  0  0  0  0  0  0
   38.4300   21.5100   55.4000 H   0  0  0  0  0  0  0  0  0  0  0  0
   38.9600   19.8700   54.8200 H   0  0  0  0  0  0  0  0  0  0  0  0
   38.6800   21.3200   53.3100 C   0  0  2  0  0  0  0  0  0  0  0  0
   39.0300   20.5200   52.6100 H   0  0  0  0  0  0  0  0  0  0  0  0
   39.1300   22.6300   52.9500 O   0  0  0  0  0  0  0  0  0  0  0  0
   40.0300   22.6500   52.0000 C   0  0  0  0  0  0  0  0  0  0  0  0
   40.3000   21.7300   51.2400 O   0  0  0  0  0  0  0  0  0  0  0  0
   40.6200   24.0400   51.9300 C   0  0  0  0  0  0  0  0  0  0  0  0
   41.0900   24.3300   52.8800 H   0  0  0  0  0  0  0  0  0  0  0  0
   39.8000   24.7600   51.6700 H   0  0  0  0  0  0  0  0  0  0  0  0
   37.1600   21.2600   53.3300 C   0  0  0  0  0  0  0  0  0  0  0  0
   36.7800   22.0400   54.0200 H   0  0  0  0  0  0  0  0  0  0  0  0
   36.7700   20.2800   53.6600 H   0  0  0  0  0  0  0  0  0  0  0  0
   36.7600   21.4900   52.0100 O   0  0  0  0  0  0  0  0  0  0  0  0
   36.9600   20.5000   51.0900 C   0  0  0  0  0  0  0  0  0  0  0  0
   37.3500   19.3900   51.3100 O   0  0  0  0  0  0  0  0  0  0  0  0
   36.4100   21.0300   49.7700 C   0  0  0  0  0  0  0  0  0  0  0  0
   36.8300   21.9800   50.0300 H   0  0  0  0  0  0  0  0  0  0  0  0
   35.3400   20.9300   49.8700 H   0  0  0  0  0  0  0  0  0  0  0  0
   41.5800   24.0600   50.7800 C   0  0  0  0  0  0  0  0  0  0  0  0
   42.2000   23.1300   50.6700 H   0  0  0  0  0  0  0  0  0  0  0  0
   42.3200   24.9000   50.8600 H   0  0  0  0  0  0  0  0  0  0  0  0
   40.6600   24.2600   49.5900 C   0  0  0  0  0  0  0  0  0  0  0  0
   40.2400   25.2900   49.5900 H   0  0  0  0  0  0  0  0  0  0  0  0
   39.8900   23.4900   49.3900 H   0  0  0  0  0  0  0  0  0  0  0  0
   41.5100   24.2300   48.4600 C   0  0  0  0  0  0  0  0  0  0  0  0
   42.0300   23.2400   48.3200 H   0  0  0  0  0  0  0  0  0  0  0  0
   42.2500   25.0000   48.8200 H   0  0  0  0  0  0  0  0  0  0  0  0
   40.9400   24.7900   47.2000 C   0  0  0  0  0  0  0  0  0  0  0  0
   41.8500   24.3600   46.7600 H   0  0  0  0  0  0  0  0  0  0  0  0
   40.9700   25.9000   47.1500 H   0  0  0  0  0  0  0  0  0  0  0  0
   39.9400   24.0600   46.3100 C   0  0  0  0  0  0  0  0  0  0  0  0
   39.6500   24.7600   45.4800 H   0  0  0  0  0  0  0  0  0  0  0  0
   39.0700   23.9300   46.9800 H   0  0  0  0  0  0  0  0  0  0  0  0
   40.4000   22.6700   45.7700 C   0  0  0  0  0  0  0  0  0  0  0  0
   39.5000   22.0500   45.6900 H   0  0  0  0  0  0  0  0  0  0  0  0
   41.1100   22.1800   46.4600 H   0  0  0  0  0  0  0  0  0  0  0  0
   40.9800   22.5900   44.3700 C   0  0  0  0  0  0  0  0  0  0  0  0
   41.9400   23.1500   44.3800 H   0  0  0  0  0  0  0  0  0  0  0  0
   40.1900   23.0400   43.7200 H   0  0  0  0  0  0  0  0  0  0  0  0
   41.4500   21.3000   43.7000 C   0  0  0  0  0  0  0  0  0  0  0  0
   40.6000   20.6100   43.5800 H   0  0  0  0  0  0  0  0  0  0  0  0
   42.2300   20.9000   44.3800 H   0  0  0  0  0  0  0  0  0  0  0  0
   42.2000   21.4300   42.3500 C   0  0  0  0  0  0  0  0  0  0  0  0
   42.5200   20.4300   42.0100 H   0  0  0  0  0  0  0  0  0  0  0  0
   43.1600   21.9300   42.5700 H   0  0  0  0  0  0  0  0  0  0  0  0
   41.4900   21.9700   41.1100 C   0  0  0  0  0  0  0  0  0  0  0  0
   42.1500   21.6900   40.2800 H   0  0  0  0  0  0  0  0  0  0  0  0
   41.2300   23.0500   41.0400 H   0  0  0  0  0  0  0  0  0  0  0  0
   40.2900   21.1800   40.7600 C   0  0  0  0  0  0  0  0  0  0  0  0
   39.6100   21.4400   41.5600 H   0  0  0  0  0  0  0  0  0  0  0  0
   40.4900   20.0900   40.8000 H   0  0  0  0  0  0  0  0  0  0  0  0
   39.7100   21.4900   39.4000 C   0  0  0  0  0  0  0  0  0  0  0  0
   39.3300   22.5400   39.3000 H   0  0  0  0  0  0  0  0  0  0  0  0
   38.8500   20.8000   39.3300 H   0  0  0  0  0  0  0  0  0  0  0  0
   40.3800   21.3000   38.5500 H   0  0  0  0  0  0  0  0  0  0  0  0
   36.7200   20.8300   48.2300 C   0  0  0  0  0  0  0  0  0  0  0  0
   36.2400   19.8200   48.2200 H   0  0  0  0  0  0  0  0  0  0  0  0
   37.8000   20.8800   48.1200 H   0  0  0  0  0  0  0  0  0  0  0  0
   36.0900   21.5600   46.9300 C   0  0  0  0  0  0  0  0  0  0  0  0
   35.0300   21.5800   47.1200 H   0  0  0  0  0  0  0  0  0  0  0  0
   36.0500   20.8300   46.2100 H   0  0  0  0  0  0  0  0  0  0  0  0
   36.6500   22.6800   45.8900 C   0  0  0  0  0  0  0  0  0  0  0  0
   37.7100   22.5500   45.7700 H   0  0  0  0  0  0  0  0  0  0  0  0
   36.7500   23.7300   46.1400 H   0  0  0  0  0  0  0  0  0  0  0  0
   35.9200   23.2200   44.6600 C   0  0  0  0  0  0  0  0  0  0  0  0
   35.0400   23.8700   44.5900 H   0  0  0  0  0  0  0  0  0  0  0  0
   35.4700   22.3800   44.1100 H   0  0  0  0  0  0  0  0  0  0  0  0
   36.9500   24.1300   44.0500 C   0  0  0  0  0  0  0  0  0  0  0  0
   37.9900   23.7600   44.1300 H   0  0  0  0  0  0  0  0  0  0  0  0
   37.1000   25.1000   44.5000 H   0  0  0  0  0  0  0  0  0  0  0  0
   36.5100   24.2400   42.6900 C   0  0  0  0  0  0  0  0  0  0  0  0
   35.4800   24.4100   42.4300 H   0  0  0  0  0  0  0  0  0  0  0  0
   36.3100   23.2400   42.4800 H   0  0  0  0  0  0  0  0  0  0  0  0
   37.5700   25.0300   42.0200 C   0  0  0  0  0  0  0  0  0  0  0  0
   38.6000   24.8100   42.3500 H   0  0  0  0  0  0  0  0  0  0  0  0
   37.3900   25.9900   42.4900 H   0  0  0  0  0  0  0  0  0  0  0  0
   37.3600   25.0900   40.5500 C   0  0  0  0  0  0  0  0  0  0  0  0
   36.5600   25.8000   40.4600 H   0  0  0  0  0  0  0  0  0  0  0  0
   36.8000   24.2400   40.1700 H   0  0  0  0  0  0  0  0  0  0  0  0
   38.5900   25.3800   39.6900 C   0  0  0  0  0  0  0  0  0  0  0  0
   39.4200   24.7300   40.0500 H   0  0  0  0  0  0  0  0  0  0  0  0
   38.7700   26.4500   39.9100 H   0  0  0  0  0  0  0  0  0  0  0  0
   38.5200   25.1200   38.1600 C   0  0  0  0  0  0  0  0  0  0  0  0
   37.9600   25.8300   37.6200 H   0  0  0  0  0  0  0  0  0  0  0  0
   38.1100   24.1800   37.8100 H   0  0  0  0  0  0  0  0  0  0  0  0
   39.1000   26.0100   37.1300 C   0  0  0  0  0  0  0  0  0  0  0  0
   39.2500   27.0400   37.5600 H   0  0  0  0  0  0  0  0  0  0  0  0
   38.7600   25.9500   36.0400 H   0  0  0  0  0  0  0  0  0  0  0  0
   40.1500   25.1800   37.2100 C   0  0  0  0  0  0  0  0  0  0  0  0
   39.8900   24.1300   37.0600 H   0  0  0  0  0  0  0  0  0  0  0  0
   40.6000   25.1100   38.2300 H   0  0  0  0  0  0  0  0  0  0  0  0
   40.9200   25.6100   36.5500 H   0  0  0  0  0  0  0  0  0  0  0  0
  1  3  1  0  0  0  0
  1  6  1  0  0  0  0
  1  2  1  0  0  0  0
  4  1  1  0  0  0  0
  5  4  1  0  0  0  0
  6  7  1  1  0  0  0
  8  6  1  0  0  0  0
  9  8  1  0  0  0  0
 10 12  1  0  0  0  0
 10 16  1  0  0  0  0
 10  6  1  0  0  0  0
 11 10  1  0  0  0  0
 13 17  1  6  0  0  0
 13 15  2  0  0  0  0
 13 14  1  0  0  0  0
 13 16  1  0  0  0  0
 18 20  1  0  0  0  0
 18 17  1  0  0  0  0
 18 19  1  0  0  0  0
 21 22  1  6  0  0  0
 21 29  1  0  0  0  0
 21 18  1  0  0  0  0
 23 21  1  0  0  0  0
 24 23  1  0  0  0  0
 25 24  2  0  0  0  0
 26 24  1  0  0  0  0
 26 27  1  0  0  0  0
 28 26  1  0  0  0  0
 29 31  1  0  0  0  0
 29 30  1  0  0  0  0
 32 29  1  0  0  0  0
 33 34  2  0  0  0  0
 33 32  1  0  0  0  0
 35 37  1  0  0  0  0
 35 36  1  0  0  0  0
 35 33  1  0  0  0  0
 38 40  1  0  0  0  0
 38 26  1  0  0  0  0
 39 38  1  0  0  0  0
 41 38  1  0  0  0  0
 42 41  1  0  0  0  0
 43 41  1  0  0  0  0
 44 46  1  0  0  0  0
 44 41  1  0  0  0  0
 45 44  1  0  0  0  0
 47 44  1  0  0  0  0
 48 47  1  0  0  0  0
 49 47  1  0  0  0  0
 50 52  1  0  0  0  0
 50 47  1  0  0  0  0
 51 50  1  0  0  0  0
 53 50  1  0  0  0  0
 53 55  1  0  0  0  0
 54 53  1  0  0  0  0
 56 57  1  0  0  0  0
 56 53  1  0  0  0  0
 58 56  1  0  0  0  0
 59 56  1  0  0  0  0
 59 61  1  0  0  0  0
 60 59  1  0  0  0  0
 62 64  1  0  0  0  0
 62 59  1  0  0  0  0
 63 62  1  0  0  0  0
 65 62  1  0  0  0  0
 66 65  1  0  0  0  0
 67 65  1  0  0  0  0
 68 70  1  0  0  0  0
 68 65  1  0  0  0  0
 68 69  1  0  0  0  0
 71 68  1  0  0  0  0
 72 71  1  0  0  0  0
 73 71  1  0  0  0  0
 74 71  1  0  0  0  0
 75 35  1  0  0  0  0
 76 75  1  0  0  0  0
 77 75  1  0  0  0  0
 78 79  1  0  0  0  0
 78 75  1  0  0  0  0
 80 78  1  0  0  0  0
 81 83  1  0  0  0  0
 81 78  1  0  0  0  0
 82 81  1  0  0  0  0
 84 81  1  0  0  0  0
 85 84  1  0  0  0  0
 86 84  1  0  0  0  0
 87 88  1  0  0  0  0
 87 89  1  0  0  0  0
 87 84  1  0  0  0  0
 90 87  1  0  0  0  0
 91 90  1  0  0  0  0
 92 90  1  0  0  0  0
 93 94  1  0  0  0  0
 93 95  1  0  0  0  0
 93 90  1  0  0  0  0
 96 93  1  0  0  0  0
 97 96  1  0  0  0  0
 98 96  1  0  0  0  0
 99101  1  0  0  0  0
 99100  1  0  0  0  0
 99 96  1  0  0  0  0
102 99  1  0  0  0  0
103102  1  0  0  0  0
104102  1  0  0  0  0
105108  1  0  0  0  0
105106  1  0  0  0  0
105102  1  0  0  0  0
107105  1  0  0  0  0
108110  1  0  0  0  0
109108  1  0  0  0  0
111108  1  0  0  0  0
M  END
