PNPI24
 OpenBabel02161614153D

140135  0  0  1  0  0  0  0  0999 V2000
   44.5800    8.9000   62.5600 C   0  0  2  0  0  0  0  0  0  0  0  0
   45.2300    9.5100   61.9000 H   0  0  0  0  0  0  0  0  0  0  0  0
   45.1700    7.6200   62.7200 O   0  0  0  0  0  0  0  0  0  0  0  0
   44.9700    7.4400   63.6300 H   0  0  0  0  0  0  0  0  0  0  0  0
   44.3700    9.6000   63.9200 C   0  0  2  0  0  0  0  0  0  0  0  0
   43.9600   10.6300   63.7600 H   0  0  0  0  0  0  0  0  0  0  0  0
   45.5300    9.5900   64.6900 O   0  0  0  0  0  0  0  0  0  0  0  0
   45.7000   10.5200   64.9400 H   0  0  0  0  0  0  0  0  0  0  0  0
   43.5300    8.8400   64.8800 C   0  0  1  0  0  0  0  0  0  0  0  0
   44.0400    7.8600   65.0800 H   0  0  0  0  0  0  0  0  0  0  0  0
   43.3600    9.6500   66.0900 O   0  0  0  0  0  0  0  0  0  0  0  0
   44.1000    9.2100   67.4900 P   0  0  1  0  0  0  0  0  0  0  0  0
   43.3200    7.9200   67.9300 O   0  0  0  0  0  0  0  0  0  0  0  0
   43.0800    7.3800   67.1700 H   0  0  0  0  0  0  0  0  0  0  0  0
   45.4900    8.6600   67.2500 O   0  0  0  0  0  0  0  0  0  0  0  0
   44.0000   10.2200   68.6300 O   0  0  0  0  0  0  0  0  0  0  0  0
   42.2200    8.5500   64.2200 C   0  0  2  0  0  0  0  0  0  0  0  0
   41.6700    9.4900   64.0000 H   0  0  0  0  0  0  0  0  0  0  0  0
   41.6400    7.6800   65.2000 O   0  0  0  0  0  0  0  0  0  0  0  0
   40.3000    8.2100   66.0200 P   0  0  0  0  0  0  0  0  0  0  0  0
   39.7000    6.9800   66.6600 O   0  0  0  0  0  0  0  0  0  0  0  0
   40.6000    9.3600   66.9600 O   0  0  0  0  0  0  0  0  0  0  0  0
   39.5400    8.7100   64.8900 O   0  0  0  0  0  0  0  0  0  0  0  0
   42.4500    7.8000   62.8900 C   0  0  1  0  0  0  0  0  0  0  0  0
   42.9900    6.8700   63.1300 H   0  0  0  0  0  0  0  0  0  0  0  0
   41.2500    7.4100   62.2400 O   0  0  0  0  0  0  0  0  0  0  0  0
   40.9200    6.6400   62.6900 H   0  0  0  0  0  0  0  0  0  0  0  0
   43.2500    8.6500   61.9200 C   0  0  2  0  0  0  0  0  0  0  0  0
   42.7000    9.6200   61.8600 H   0  0  0  0  0  0  0  0  0  0  0  0
   43.5500    8.9900   59.3100 P   0  0  2  0  0  0  0  0  0  0  0  0
   44.8000    9.7500   59.3400 O   0  0  0  0  0  0  0  0  0  0  0  0
   42.3600    9.8400   59.2400 O   0  0  0  0  0  0  0  0  0  0  0  0
   43.4000    7.9900   60.6300 O   0  0  0  0  0  0  0  0  0  0  0  0
   43.5800    7.9700   58.0900 O   0  0  0  0  0  0  0  0  0  0  0  0
   43.6600    6.5600   58.2500 C   0  0  0  0  0  0  0  0  0  0  0  0
   42.8000    6.1900   58.8400 H   0  0  0  0  0  0  0  0  0  0  0  0
   44.6000    6.2600   58.7600 H   0  0  0  0  0  0  0  0  0  0  0  0
   43.6100    5.8700   56.8600 C   0  0  2  0  0  0  0  0  0  0  0  0
   44.0100    4.8300   56.9200 H   0  0  0  0  0  0  0  0  0  0  0  0
   44.2700    6.6000   55.8400 O   0  0  0  0  0  0  0  0  0  0  0  0
   45.5300    6.7300   55.9400 C   0  0  0  0  0  0  0  0  0  0  0  0
   46.2800    6.1200   56.6700 O   0  0  0  0  0  0  0  0  0  0  0  0
   45.8500    7.6800   54.8300 C   0  0  0  0  0  0  0  0  0  0  0  0
   45.8600    8.7300   55.1800 H   0  0  0  0  0  0  0  0  0  0  0  0
   45.1000    7.5800   54.0000 H   0  0  0  0  0  0  0  0  0  0  0  0
   42.1900    5.7600   56.4000 C   0  0  0  0  0  0  0  0  0  0  0  0
   41.7300    5.0400   57.1200 H   0  0  0  0  0  0  0  0  0  0  0  0
   41.6100    6.7100   56.4500 H   0  0  0  0  0  0  0  0  0  0  0  0
   42.2800    5.3000   55.0400 O   0  0  0  0  0  0  0  0  0  0  0  0
   41.2200    4.6300   54.7600 C   0  0  0  0  0  0  0  0  0  0  0  0
   40.3000    4.4600   55.5300 O   0  0  0  0  0  0  0  0  0  0  0  0
   41.2600    4.2400   53.2500 C   0  0  0  0  0  0  0  0  0  0  0  0
   40.2800    3.8000   52.9600 H   0  0  0  0  0  0  0  0  0  0  0  0
   41.8900    3.5000   52.8900 H   0  0  0  0  0  0  0  0  0  0  0  0
   47.1400    7.2900   54.2200 C   0  0  0  0  0  0  0  0  0  0  0  0
   47.2300    6.2000   53.9700 H   0  0  0  0  0  0  0  0  0  0  0  0
   47.9400    7.5500   54.9100 H   0  0  0  0  0  0  0  0  0  0  0  0
   47.2500    8.0700   52.9700 C   0  0  0  0  0  0  0  0  0  0  0  0
   47.7200    9.0800   53.1600 H   0  0  0  0  0  0  0  0  0  0  0  0
   46.3700    8.2100   52.3300 H   0  0  0  0  0  0  0  0  0  0  0  0
   48.1000    7.2700   52.1000 C   0  0  0  0  0  0  0  0  0  0  0  0
   47.8900    6.2500   51.7800 H   0  0  0  0  0  0  0  0  0  0  0  0
   48.9500    6.8500   52.6800 H   0  0  0  0  0  0  0  0  0  0  0  0
   48.1600    8.2900   50.9900 C   0  0  0  0  0  0  0  0  0  0  0  0
   49.0700    8.9100   51.1300 H   0  0  0  0  0  0  0  0  0  0  0  0
   47.8900    9.3600   51.1100 H   0  0  0  0  0  0  0  0  0  0  0  0
   47.9100    7.4200   49.7200 C   0  0  0  0  0  0  0  0  0  0  0  0
   48.3200    6.4100   49.6100 H   0  0  0  0  0  0  0  0  0  0  0  0
   48.6400    7.4600   49.0000 H   0  0  0  0  0  0  0  0  0  0  0  0
   46.5600    7.4600   49.1400 C   0  0  0  0  0  0  0  0  0  0  0  0
   46.1900    8.3900   49.5900 H   0  0  0  0  0  0  0  0  0  0  0  0
   46.3100    6.5400   49.7300 H   0  0  0  0  0  0  0  0  0  0  0  0
   46.3300    7.3300   47.6200 C   0  0  0  0  0  0  0  0  0  0  0  0
   46.5300    6.2800   47.3100 H   0  0  0  0  0  0  0  0  0  0  0  0
   46.2200    8.2500   46.5900 C   0  0  0  0  0  0  0  0  0  0  0  0
   46.1800    7.8400   45.5800 H   0  0  0  0  0  0  0  0  0  0  0  0
   46.3000    9.8000   46.4800 C   0  0  0  0  0  0  0  0  0  0  0  0
   46.2000   10.1400   47.4900 H   0  0  0  0  0  0  0  0  0  0  0  0
   45.3700   10.3800   46.4300 H   0  0  0  0  0  0  0  0  0  0  0  0
   47.4400   10.6000   45.7900 C   0  0  0  0  0  0  0  0  0  0  0  0
   48.4400   10.7400   46.2100 H   0  0  0  0  0  0  0  0  0  0  0  0
   47.5700   11.1100   44.6600 C   0  0  0  0  0  0  0  0  0  0  0  0
   48.6100   11.4400   44.3800 H   0  0  0  0  0  0  0  0  0  0  0  0
   46.4100   10.8900   43.8200 C   0  0  0  0  0  0  0  0  0  0  0  0
   46.5400   11.6800   43.1100 H   0  0  0  0  0  0  0  0  0  0  0  0
   45.5500   11.0800   44.4700 H   0  0  0  0  0  0  0  0  0  0  0  0
   45.9500    9.6600   43.1200 C   0  0  0  0  0  0  0  0  0  0  0  0
   45.3900    8.9000   43.7300 H   0  0  0  0  0  0  0  0  0  0  0  0
   46.7200    9.2400   42.1400 C   0  0  0  0  0  0  0  0  0  0  0  0
   46.3300    8.2300   41.7300 H   0  0  0  0  0  0  0  0  0  0  0  0
   48.1900    9.9500   41.6600 C   0  0  0  0  0  0  0  0  0  0  0  0
   48.1900   10.9900   41.8000 H   0  0  0  0  0  0  0  0  0  0  0  0
   47.4700    9.9200   40.8300 H   0  0  0  0  0  0  0  0  0  0  0  0
   50.2200    9.4100   41.7200 C   0  0  0  0  0  0  0  0  0  0  0  0
   50.8100    8.7400   41.0500 H   0  0  0  0  0  0  0  0  0  0  0  0
   50.6300    8.6600   42.4300 H   0  0  0  0  0  0  0  0  0  0  0  0
   50.3700    8.2800   41.4400 H   0  0  0  0  0  0  0  0  0  0  0  0
   42.0000    5.1800   52.3300 C   0  0  0  0  0  0  0  0  0  0  0  0
   43.0200    5.3800   52.6200 H   0  0  0  0  0  0  0  0  0  0  0  0
   41.7000    6.1700   52.6600 H   0  0  0  0  0  0  0  0  0  0  0  0
   41.9400    4.6600   50.8800 C   0  0  0  0  0  0  0  0  0  0  0  0
   40.9600    4.3400   50.5000 H   0  0  0  0  0  0  0  0  0  0  0  0
   42.3300    3.6400   50.8000 H   0  0  0  0  0  0  0  0  0  0  0  0
   42.6200    5.6100   49.8800 C   0  0  0  0  0  0  0  0  0  0  0  0
   43.6400    5.7500   50.2400 H   0  0  0  0  0  0  0  0  0  0  0  0
   42.1400    6.6200   49.8600 H   0  0  0  0  0  0  0  0  0  0  0  0
   42.5400    5.1200   48.4400 C   0  0  0  0  0  0  0  0  0  0  0  0
   41.5000    5.2100   48.1200 H   0  0  0  0  0  0  0  0  0  0  0  0
   42.8600    4.0700   48.3400 H   0  0  0  0  0  0  0  0  0  0  0  0
   42.9100    6.0500   47.3300 C   0  0  0  0  0  0  0  0  0  0  0  0
   43.3400    5.4200   46.5200 H   0  0  0  0  0  0  0  0  0  0  0  0
   43.6400    6.7100   47.8300 H   0  0  0  0  0  0  0  0  0  0  0  0
   41.6800    6.8100   46.7600 C   0  0  0  0  0  0  0  0  0  0  0  0
   41.0200    7.2200   47.5400 H   0  0  0  0  0  0  0  0  0  0  0  0
   41.0400    6.1200   46.1700 H   0  0  0  0  0  0  0  0  0  0  0  0
   42.1000    7.9900   46.0100 C   0  0  0  0  0  0  0  0  0  0  0  0
   42.9400    8.5700   46.3900 H   0  0  0  0  0  0  0  0  0  0  0  0
   41.2300    8.6300   45.6800 H   0  0  0  0  0  0  0  0  0  0  0  0
   42.7200    7.6400   44.6900 C   0  0  0  0  0  0  0  0  0  0  0  0
   43.6100    6.9700   44.5900 H   0  0  0  0  0  0  0  0  0  0  0  0
   43.0800    8.6900   44.5100 H   0  0  0  0  0  0  0  0  0  0  0  0
   41.5700    6.8600   43.9700 C   0  0  0  0  0  0  0  0  0  0  0  0
   40.5300    7.2400   43.7800 H   0  0  0  0  0  0  0  0  0  0  0  0
   41.4700    5.7200   44.1800 H   0  0  0  0  0  0  0  0  0  0  0  0
   41.9500    6.8300   42.5700 C   0  0  0  0  0  0  0  0  0  0  0  0
   42.7600    6.1500   42.7700 H   0  0  0  0  0  0  0  0  0  0  0  0
   41.7800    7.6800   41.9700 H   0  0  0  0  0  0  0  0  0  0  0  0
   41.1100    6.6100   41.3800 C   0  0  0  0  0  0  0  0  0  0  0  0
   40.0600    6.4700   41.1200 H   0  0  0  0  0  0  0  0  0  0  0  0
   40.9300    5.7100   41.9600 H   0  0  0  0  0  0  0  0  0  0  0  0
   42.2300    7.0700   40.1500 C   0  0  0  0  0  0  0  0  0  0  0  0
   42.3600    6.6200   39.1700 H   0  0  0  0  0  0  0  0  0  0  0  0
   41.3900    7.3200   39.5400 H   0  0  0  0  0  0  0  0  0  0  0  0
   43.5300    6.3600   40.7800 C   0  0  0  0  0  0  0  0  0  0  0  0
   43.9700    5.8300   41.6600 H   0  0  0  0  0  0  0  0  0  0  0  0
   44.0200    6.6300   39.8300 H   0  0  0  0  0  0  0  0  0  0  0  0
   43.9400    5.0400   40.4500 C   0  0  0  0  0  0  0  0  0  0  0  0
   45.0700    5.2400   40.1500 H   0  0  0  0  0  0  0  0  0  0  0  0
   43.0400    4.1900   40.7500 H   0  0  0  0  0  0  0  0  0  0  0  0
   44.6200    5.0400   39.4800 H   0  0  0  0  0  0  0  0  0  0  0  0
  1  2  1  6  0  0  0
  1  3  1  0  0  0  0
  1  5  1  0  0  0  0
  3  4  1  0  0  0  0
  5  6  1  6  0  0  0
  5  7  1  0  0  0  0
  5  9  1  0  0  0  0
  7  8  1  0  0  0  0
  9 10  1  1  0  0  0
  9 11  1  0  0  0  0
 12 11  1  6  0  0  0
 12 13  1  0  0  0  0
 12 16  1  0  0  0  0
 14 13  1  0  0  0  0
 15 12  2  0  0  0  0
 17 18  1  6  0  0  0
 17  9  1  0  0  0  0
 17 19  1  0  0  0  0
 19 20  1  0  0  0  0
 20 21  1  0  0  0  0
 20 22  1  0  0  0  0
 23 20  2  0  0  0  0
 24 25  1  1  0  0  0
 24 17  1  0  0  0  0
 26 27  1  0  0  0  0
 26 24  1  0  0  0  0
 28 29  1  6  0  0  0
 28  1  1  0  0  0  0
 28 24  1  0  0  0  0
 30 34  1  6  0  0  0
 30 31  1  0  0  0  0
 30 33  1  0  0  0  0
 32 30  2  0  0  0  0
 33 28  1  0  0  0  0
 34 35  1  0  0  0  0
 35 37  1  0  0  0  0
 35 36  1  0  0  0  0
 38 39  1  1  0  0  0
 38 35  1  0  0  0  0
 40 41  1  0  0  0  0
 40 38  1  0  0  0  0
 41 42  2  0  0  0  0
 43 44  1  0  0  0  0
 43 41  1  0  0  0  0
 45 43  1  0  0  0  0
 46 48  1  0  0  0  0
 46 38  1  0  0  0  0
 46 47  1  0  0  0  0
 49 46  1  0  0  0  0
 50 49  1  0  0  0  0
 50 51  2  0  0  0  0
 52 50  1  0  0  0  0
 53 52  1  0  0  0  0
 54 52  1  0  0  0  0
 55 43  1  0  0  0  0
 55 57  1  0  0  0  0
 56 55  1  0  0  0  0
 58 59  1  0  0  0  0
 58 55  1  0  0  0  0
 60 58  1  0  0  0  0
 61 63  1  0  0  0  0
 61 58  1  0  0  0  0
 62 61  1  0  0  0  0
 64 66  1  0  0  0  0
 64 65  1  0  0  0  0
 64 61  1  0  0  0  0
 67 64  1  0  0  0  0
 68 67  1  0  0  0  0
 69 67  1  0  0  0  0
 70 71  1  0  0  0  0
 70 67  1  0  0  0  0
 70 72  1  0  0  0  0
 73 70  1  0  0  0  0
 74 73  1  0  0  0  0
 75 73  2  0  0  0  0
 76 75  1  0  0  0  0
 77 75  1  0  0  0  0
 77 78  1  0  0  0  0
 79 77  1  0  0  0  0
 80 81  1  0  0  0  0
 80 77  1  0  0  0  0
 82 80  2  0  0  0  0
 83 82  1  0  0  0  0
 84 86  1  0  0  0  0
 84 82  1  0  0  0  0
 85 84  1  0  0  0  0
 87 88  1  0  0  0  0
 87 84  1  0  0  0  0
 89 87  1  0  0  0  0
 90 89  1  0  0  0  0
 91 92  1  0  0  0  0
 91 89  1  0  0  0  0
 93 91  1  0  0  0  0
 94 96  1  0  0  0  0
 95 94  1  0  0  0  0
 98 99  1  0  0  0  0
 98100  1  0  0  0  0
 98 52  1  0  0  0  0
101 98  1  0  0  0  0
102101  1  0  0  0  0
103101  1  0  0  0  0
104105  1  0  0  0  0
104101  1  0  0  0  0
106104  1  0  0  0  0
107104  1  0  0  0  0
108107  1  0  0  0  0
109107  1  0  0  0  0
110112  1  0  0  0  0
110107  1  0  0  0  0
111110  1  0  0  0  0
113110  1  0  0  0  0
113114  1  0  0  0  0
115113  1  0  0  0  0
116117  1  0  0  0  0
116113  1  0  0  0  0
118116  1  0  0  0  0
119116  1  0  0  0  0
120119  1  0  0  0  0
121119  1  0  0  0  0
122124  1  0  0  0  0
122119  1  0  0  0  0
123122  1  0  0  0  0
125126  1  0  0  0  0
125122  1  0  0  0  0
127125  1  0  0  0  0
128130  1  0  0  0  0
128125  1  0  0  0  0
129128  1  0  0  0  0
131134  1  0  0  0  0
131128  1  0  0  0  0
132131  1  0  0  0  0
133131  1  0  0  0  0
134135  1  0  0  0  0
136134  1  0  0  0  0
140137  1  0  0  0  0
M  END
