CER181
 OpenBabel02161614153D

109106  0  0  1  0  0  0  0  0999 V2000
    6.3100   66.6700   59.9900 O   0  0  0  0  0  0  0  0  0  0  0  0
    6.1300   65.8700   60.5000 H   0  0  0  0  0  0  0  0  0  0  0  0
    6.7800   66.2400   58.7100 C   0  0  0  0  0  0  0  0  0  0  0  0
    7.6700   65.5500   58.8400 H   0  0  0  0  0  0  0  0  0  0  0  0
    5.9400   65.6800   58.2100 H   0  0  0  0  0  0  0  0  0  0  0  0
    7.3100   66.8000   56.4500 N   0  0  0  0  0  0  0  0  0  0  0  0
    8.2300   66.6300   56.1100 H   0  0  0  0  0  0  0  0  0  0  0  0
    7.3100   67.2800   57.8100 C   0  0  2  0  0  0  0  0  0  0  0  0
    6.6200   68.1300   57.9100 H   0  0  0  0  0  0  0  0  0  0  0  0
    8.7200   67.6100   58.3200 C   0  0  2  0  0  0  0  0  0  0  0  0
    9.4000   66.7400   58.2600 H   0  0  0  0  0  0  0  0  0  0  0  0
    8.7900   68.0700   59.6600 O   0  0  0  0  0  0  0  0  0  0  0  0
    7.9400   67.8200   60.0700 H   0  0  0  0  0  0  0  0  0  0  0  0
    9.1900   68.6700   57.4100 C   0  0  0  0  0  0  0  0  0  0  0  0
    8.6400   69.6000   57.5600 H   0  0  0  0  0  0  0  0  0  0  0  0
   10.2000   68.5800   56.5200 C   0  0  0  0  0  0  0  0  0  0  0  0
   10.8500   67.7000   56.4900 H   0  0  0  0  0  0  0  0  0  0  0  0
   10.6300   69.6900   55.6100 C   0  0  0  0  0  0  0  0  0  0  0  0
   11.6600   70.0300   55.9000 H   0  0  0  0  0  0  0  0  0  0  0  0
    9.9000   70.5000   55.6700 H   0  0  0  0  0  0  0  0  0  0  0  0
   10.7200   69.3500   54.1200 C   0  0  0  0  0  0  0  0  0  0  0  0
   11.5400   68.6800   54.1100 H   0  0  0  0  0  0  0  0  0  0  0  0
   11.0900   70.2100   53.5300 H   0  0  0  0  0  0  0  0  0  0  0  0
    9.4200   68.8000   53.5400 C   0  0  0  0  0  0  0  0  0  0  0  0
    8.7100   69.6300   53.6800 H   0  0  0  0  0  0  0  0  0  0  0  0
    9.0400   67.9500   54.1500 H   0  0  0  0  0  0  0  0  0  0  0  0
    9.4300   68.4100   52.0600 C   0  0  0  0  0  0  0  0  0  0  0  0
    9.0100   67.3900   51.9500 H   0  0  0  0  0  0  0  0  0  0  0  0
   10.4300   68.3400   51.6100 H   0  0  0  0  0  0  0  0  0  0  0  0
    8.6200   69.3900   51.2100 C   0  0  0  0  0  0  0  0  0  0  0  0
    9.0400   70.4200   51.2600 H   0  0  0  0  0  0  0  0  0  0  0  0
    7.5700   69.4400   51.5600 H   0  0  0  0  0  0  0  0  0  0  0  0
    8.6600   68.9200   49.7800 C   0  0  0  0  0  0  0  0  0  0  0  0
    8.4800   67.8300   49.6800 H   0  0  0  0  0  0  0  0  0  0  0  0
    9.6600   69.1500   49.3400 H   0  0  0  0  0  0  0  0  0  0  0  0
    7.6700   69.5500   48.8900 C   0  0  0  0  0  0  0  0  0  0  0  0
    7.7000   70.6700   49.0400 H   0  0  0  0  0  0  0  0  0  0  0  0
    6.6200   69.2400   49.0800 H   0  0  0  0  0  0  0  0  0  0  0  0
    8.1500   69.0700   47.5100 C   0  0  0  0  0  0  0  0  0  0  0  0
    7.9400   68.0200   47.2200 H   0  0  0  0  0  0  0  0  0  0  0  0
    9.1100   69.5300   47.2000 H   0  0  0  0  0  0  0  0  0  0  0  0
    7.3500   69.6300   46.5200 C   0  0  0  0  0  0  0  0  0  0  0  0
    7.3300   70.5600   47.1400 H   0  0  0  0  0  0  0  0  0  0  0  0
    6.2700   69.3400   46.7500 H   0  0  0  0  0  0  0  0  0  0  0  0
    7.8800   69.8200   44.9700 C   0  0  0  0  0  0  0  0  0  0  0  0
    8.6700   70.5100   44.6400 H   0  0  0  0  0  0  0  0  0  0  0  0
    7.5700   70.8000   44.4500 H   0  0  0  0  0  0  0  0  0  0  0  0
    7.3900   68.5800   44.1600 C   0  0  0  0  0  0  0  0  0  0  0  0
    6.3100   68.2500   44.1900 H   0  0  0  0  0  0  0  0  0  0  0  0
    7.8400   67.7300   44.5400 H   0  0  0  0  0  0  0  0  0  0  0  0
    7.6300   68.7000   42.7900 C   0  0  0  0  0  0  0  0  0  0  0  0
    7.2300   67.8000   42.1600 H   0  0  0  0  0  0  0  0  0  0  0  0
    8.5700   69.1900   42.4400 H   0  0  0  0  0  0  0  0  0  0  0  0
    6.7300   69.7600   42.8600 C   0  0  0  0  0  0  0  0  0  0  0  0
    6.9300   69.4800   41.9000 H   0  0  0  0  0  0  0  0  0  0  0  0
    6.5000   70.8500   42.6800 H   0  0  0  0  0  0  0  0  0  0  0  0
    5.7400   69.4800   43.0600 H   0  0  0  0  0  0  0  0  0  0  0  0
    6.2500   66.4700   55.7200 C   0  0  0  0  0  0  0  0  0  0  0  0
    5.1000   66.5300   56.1600 O   0  0  0  0  0  0  0  0  0  0  0  0
    6.5800   66.0300   54.3500 C   0  0  0  0  0  0  0  0  0  0  0  0
    7.0700   65.0400   54.4300 H   0  0  0  0  0  0  0  0  0  0  0  0
    7.2800   66.7300   53.8600 H   0  0  0  0  0  0  0  0  0  0  0  0
    5.3300   65.9600   53.5000 C   0  0  0  0  0  0  0  0  0  0  0  0
    4.7400   66.8900   53.5400 H   0  0  0  0  0  0  0  0  0  0  0  0
    4.7900   65.1700   54.0500 H   0  0  0  0  0  0  0  0  0  0  0  0
    5.4000   65.6800   51.9900 C   0  0  0  0  0  0  0  0  0  0  0  0
    5.6700   66.4700   51.3200 H   0  0  0  0  0  0  0  0  0  0  0  0
    4.4100   65.3100   51.6100 H   0  0  0  0  0  0  0  0  0  0  0  0
    6.4700   64.7800   51.5600 C   0  0  0  0  0  0  0  0  0  0  0  0
    6.1000   64.4000   50.6000 H   0  0  0  0  0  0  0  0  0  0  0  0
    6.1800   64.2300   52.4400 H   0  0  0  0  0  0  0  0  0  0  0  0
    8.0000   64.8600   51.7300 C   0  0  0  0  0  0  0  0  0  0  0  0
    8.3000   64.7300   52.7900 H   0  0  0  0  0  0  0  0  0  0  0  0
    8.1200   65.8600   51.4100 H   0  0  0  0  0  0  0  0  0  0  0  0
    8.9800   64.0000   50.9100 C   0  0  0  0  0  0  0  0  0  0  0  0
    8.7900   63.0300   51.2900 H   0  0  0  0  0  0  0  0  0  0  0  0
   10.0300   64.0900   51.1800 H   0  0  0  0  0  0  0  0  0  0  0  0
    8.7600   63.7900   49.4300 C   0  0  0  0  0  0  0  0  0  0  0  0
    7.7700   63.5300   49.2800 H   0  0  0  0  0  0  0  0  0  0  0  0
    9.2300   62.8500   49.0400 H   0  0  0  0  0  0  0  0  0  0  0  0
    8.4300   64.9500   48.6000 C   0  0  0  0  0  0  0  0  0  0  0  0
    7.3800   65.3300   48.5800 H   0  0  0  0  0  0  0  0  0  0  0  0
    9.3700   65.5000   47.8800 C   0  0  0  0  0  0  0  0  0  0  0  0
    9.0700   66.3700   47.3200 H   0  0  0  0  0  0  0  0  0  0  0  0
   10.8000   65.0800   47.7900 C   0  0  0  0  0  0  0  0  0  0  0  0
   11.0200   64.1200   48.3200 H   0  0  0  0  0  0  0  0  0  0  0  0
   11.4500   65.8500   48.2700 H   0  0  0  0  0  0  0  0  0  0  0  0
   11.1800   64.9200   46.3100 C   0  0  0  0  0  0  0  0  0  0  0  0
   10.3900   64.3200   45.8200 H   0  0  0  0  0  0  0  0  0  0  0  0
   12.1300   64.3500   46.1900 H   0  0  0  0  0  0  0  0  0  0  0  0
   11.3100   66.2500   45.5400 C   0  0  0  0  0  0  0  0  0  0  0  0
   12.3200   66.6700   45.7500 H   0  0  0  0  0  0  0  0  0  0  0  0
   10.5400   66.9700   45.8900 H   0  0  0  0  0  0  0  0  0  0  0  0
   11.2000   66.1000   44.0200 C   0  0  0  0  0  0  0  0  0  0  0  0
   10.1500   65.9700   43.6500 H   0  0  0  0  0  0  0  0  0  0  0  0
   11.7400   65.1800   43.6800 H   0  0  0  0  0  0  0  0  0  0  0  0
   11.8200   67.3000   43.3300 C   0  0  0  0  0  0  0  0  0  0  0  0
   12.8900   67.4300   43.6100 H   0  0  0  0  0  0  0  0  0  0  0  0
   11.2600   68.2600   43.4700 H   0  0  0  0  0  0  0  0  0  0  0  0
   11.7200   67.0800   41.8900 C   0  0  0  0  0  0  0  0  0  0  0  0
   11.3300   68.0300   41.4200 H   0  0  0  0  0  0  0  0  0  0  0  0
   11.2200   66.1100   41.6500 H   0  0  0  0  0  0  0  0  0  0  0  0
   13.0000   66.9500   41.1500 C   0  0  0  0  0  0  0  0  0  0  0  0
   13.4500   66.1500   41.7000 H   0  0  0  0  0  0  0  0  0  0  0  0
   13.2600   68.0100   41.3800 H   0  0  0  0  0  0  0  0  0  0  0  0
   13.2400   66.6100   39.6600 C   0  0  0  0  0  0  0  0  0  0  0  0
   12.8600   67.3600   38.9100 H   0  0  0  0  0  0  0  0  0  0  0  0
   12.7400   65.6500   39.8100 H   0  0  0  0  0  0  0  0  0  0  0  0
   13.9900   66.2300   39.0200 H   0  0  0  0  0  0  0  0  0  0  0  0
  1  2  1  0  0  0  0
  3  4  1  0  0  0  0
  3  1  1  0  0  0  0
  5  3  1  0  0  0  0
  6  8  1  0  0  0  0
  7  6  1  0  0  0  0
  8  9  1  1  0  0  0
  8 10  1  0  0  0  0
  8  3  1  0  0  0  0
 10 11  1  6  0  0  0
 10 12  1  0  0  0  0
 12 13  1  0  0  0  0
 14 15  1  0  0  0  0
 14 10  1  0  0  0  0
 16 14  2  0  0  0  0
 17 16  1  0  0  0  0
 18 20  1  0  0  0  0
 18 19  1  0  0  0  0
 18 16  1  0  0  0  0
 21 18  1  0  0  0  0
 22 21  1  0  0  0  0
 23 21  1  0  0  0  0
 24 25  1  0  0  0  0
 24 21  1  0  0  0  0
 24 26  1  0  0  0  0
 27 24  1  0  0  0  0
 28 27  1  0  0  0  0
 29 27  1  0  0  0  0
 30 31  1  0  0  0  0
 30 32  1  0  0  0  0
 30 27  1  0  0  0  0
 33 30  1  0  0  0  0
 34 33  1  0  0  0  0
 35 33  1  0  0  0  0
 36 37  1  0  0  0  0
 36 38  1  0  0  0  0
 36 33  1  0  0  0  0
 39 36  1  0  0  0  0
 40 39  1  0  0  0  0
 41 39  1  0  0  0  0
 42 44  1  0  0  0  0
 42 43  1  0  0  0  0
 42 39  1  0  0  0  0
 45 42  1  0  0  0  0
 46 45  1  0  0  0  0
 47 45  1  0  0  0  0
 48 49  1  0  0  0  0
 48 50  1  0  0  0  0
 48 45  1  0  0  0  0
 52 51  1  0  0  0  0
 53 51  1  0  0  0  0
 54 57  1  0  0  0  0
 55 54  1  0  0  0  0
 56 54  1  0  0  0  0
 58 59  2  0  0  0  0
 58  6  1  0  0  0  0
 60 61  1  0  0  0  0
 60 58  1  0  0  0  0
 62 60  1  0  0  0  0
 63 64  1  0  0  0  0
 63 65  1  0  0  0  0
 63 60  1  0  0  0  0
 66 63  1  0  0  0  0
 67 66  1  0  0  0  0
 68 66  1  0  0  0  0
 69 72  1  0  0  0  0
 69 66  1  0  0  0  0
 69 71  1  0  0  0  0
 70 69  1  0  0  0  0
 72 73  1  0  0  0  0
 74 72  1  0  0  0  0
 75 77  1  0  0  0  0
 75 76  1  0  0  0  0
 75 72  1  0  0  0  0
 78 75  1  0  0  0  0
 79 78  1  0  0  0  0
 80 78  1  0  0  0  0
 81 78  1  0  0  0  0
 82 81  1  0  0  0  0
 83 81  2  0  0  0  0
 84 83  1  0  0  0  0
 85 83  1  0  0  0  0
 85 87  1  0  0  0  0
 85 86  1  0  0  0  0
 88 85  1  0  0  0  0
 89 88  1  0  0  0  0
 90 88  1  0  0  0  0
 91 92  1  0  0  0  0
 91 93  1  0  0  0  0
 91 88  1  0  0  0  0
 94 91  1  0  0  0  0
 95 94  1  0  0  0  0
 96 94  1  0  0  0  0
 97 99  1  0  0  0  0
 97 98  1  0  0  0  0
 97 94  1  0  0  0  0
100 97  1  0  0  0  0
101100  1  0  0  0  0
102100  1  0  0  0  0
103105  1  0  0  0  0
103104  1  0  0  0  0
103100  1  0  0  0  0
106108  1  0  0  0  0
106103  1  0  0  0  0
107106  1  0  0  0  0
109106  1  0  0  0  0
M  END
