DMPC
 OpenBabel02161614153D

118117  0  0  1  0  0  0  0  0999 V2000
    4.8200   38.0700   55.7600 N   0  0  0  0  0  0  0  0  0  0  0  0
    4.3100   37.8100   57.1400 C   0  0  0  0  0  0  0  0  0  0  0  0
    3.5800   37.0200   57.1500 H   0  0  0  0  0  0  0  0  0  0  0  0
    3.8300   38.7300   57.5100 H   0  0  0  0  0  0  0  0  0  0  0  0
    5.1000   37.6200   57.8600 H   0  0  0  0  0  0  0  0  0  0  0  0
    5.1500   36.8000   55.0700 C   0  0  0  0  0  0  0  0  0  0  0  0
    4.3100   36.1200   55.1800 H   0  0  0  0  0  0  0  0  0  0  0  0
    6.0400   36.3400   55.4900 H   0  0  0  0  0  0  0  0  0  0  0  0
    5.3100   37.0000   54.0100 H   0  0  0  0  0  0  0  0  0  0  0  0
    3.7100   38.7200   55.0000 C   0  0  0  0  0  0  0  0  0  0  0  0
    3.3200   39.5600   55.5800 H   0  0  0  0  0  0  0  0  0  0  0  0
    2.9200   38.0300   54.7600 H   0  0  0  0  0  0  0  0  0  0  0  0
    4.1000   39.1700   54.0900 H   0  0  0  0  0  0  0  0  0  0  0  0
    6.0000   39.0200   55.8000 C   0  0  0  0  0  0  0  0  0  0  0  0
    6.2500   39.3500   54.8000 H   0  0  0  0  0  0  0  0  0  0  0  0
    6.8700   38.5100   56.2000 H   0  0  0  0  0  0  0  0  0  0  0  0
    5.8200   40.2900   56.6500 C   0  0  0  0  0  0  0  0  0  0  0  0
    6.7500   40.8900   56.5300 H   0  0  0  0  0  0  0  0  0  0  0  0
    5.7800   39.9700   57.7200 H   0  0  0  0  0  0  0  0  0  0  0  0
    4.2000   42.0000   57.4700 P   0  0  1  0  0  0  0  0  0  0  0  0
    5.3500   42.5100   58.2200 O   0  0  0  0  0  0  0  0  0  0  0  0
    3.1500   41.3200   58.2500 O   0  0  0  0  0  0  0  0  0  0  0  0
    3.5600   43.1600   56.7300 O   0  0  0  0  0  0  0  0  0  0  0  0
    4.6800   41.0700   56.2600 O   0  0  0  0  0  0  0  0  0  0  0  0
    3.8900   43.5500   55.4200 C   0  0  0  0  0  0  0  0  0  0  0  0
    4.6800   43.0200   54.8800 H   0  0  0  0  0  0  0  0  0  0  0  0
    3.9600   44.6900   55.5700 H   0  0  0  0  0  0  0  0  0  0  0  0
    2.8200   43.3800   54.4700 C   0  0  2  0  0  0  0  0  0  0  0  0
    2.1900   44.1700   54.6700 H   0  0  0  0  0  0  0  0  0  0  0  0
    2.3200   41.9300   53.7800 O   0  0  0  0  0  0  0  0  0  0  0  0
    1.0300   41.1200   53.3000 C   0  0  0  0  0  0  0  0  0  0  0  0
   -0.1300   41.3900   53.2100 O   0  0  0  0  0  0  0  0  0  0  0  0
    1.2200   40.0200   52.2900 C   0  0  0  0  0  0  0  0  0  0  0  0
    0.1200   40.0700   51.9600 H   0  0  0  0  0  0  0  0  0  0  0  0
    1.7200   39.6800   53.1800 H   0  0  0  0  0  0  0  0  0  0  0  0
    3.3300   44.6600   53.5200 C   0  0  0  0  0  0  0  0  0  0  0  0
    3.6900   45.6500   53.8900 H   0  0  0  0  0  0  0  0  0  0  0  0
    2.4500   45.2100   53.0900 H   0  0  0  0  0  0  0  0  0  0  0  0
    4.2400   44.1500   52.6800 O   0  0  0  0  0  0  0  0  0  0  0  0
    3.6500   43.8700   51.6000 C   0  0  0  0  0  0  0  0  0  0  0  0
    2.7100   44.5000   51.1100 O   0  0  0  0  0  0  0  0  0  0  0  0
    4.4600   42.7600   50.9700 C   0  0  0  0  0  0  0  0  0  0  0  0
    4.4500   41.7900   51.4200 H   0  0  0  0  0  0  0  0  0  0  0  0
    5.4000   43.0700   51.3800 H   0  0  0  0  0  0  0  0  0  0  0  0
    1.9800   40.0500   50.9600 C   0  0  0  0  0  0  0  0  0  0  0  0
    3.0200   40.2600   50.9900 H   0  0  0  0  0  0  0  0  0  0  0  0
    1.7700   40.9100   50.3400 H   0  0  0  0  0  0  0  0  0  0  0  0
    1.4700   39.3500   49.7800 C   0  0  0  0  0  0  0  0  0  0  0  0
    0.4300   39.6600   49.6400 H   0  0  0  0  0  0  0  0  0  0  0  0
    1.4300   38.3300   50.1700 H   0  0  0  0  0  0  0  0  0  0  0  0
    2.3600   39.9400   48.6500 C   0  0  0  0  0  0  0  0  0  0  0  0
    3.4200   39.8500   48.9300 H   0  0  0  0  0  0  0  0  0  0  0  0
    2.1500   41.0200   48.4200 H   0  0  0  0  0  0  0  0  0  0  0  0
    1.9800   39.4400   47.3600 C   0  0  0  0  0  0  0  0  0  0  0  0
    1.9200   38.3300   47.5600 H   0  0  0  0  0  0  0  0  0  0  0  0
    2.6900   39.7100   46.5600 H   0  0  0  0  0  0  0  0  0  0  0  0
    0.6700   40.1600   47.0600 C   0  0  0  0  0  0  0  0  0  0  0  0
    0.5300   41.2000   46.7900 H   0  0  0  0  0  0  0  0  0  0  0  0
    0.0500   40.1600   47.9200 H   0  0  0  0  0  0  0  0  0  0  0  0
    0.1100   39.4900   45.9300 C   0  0  0  0  0  0  0  0  0  0  0  0
    0.2400   38.4400   46.3600 H   0  0  0  0  0  0  0  0  0  0  0  0
    0.9000   39.3300   45.1800 H   0  0  0  0  0  0  0  0  0  0  0  0
   -1.3300   40.1500   45.5300 C   0  0  0  0  0  0  0  0  0  0  0  0
   -1.5300   41.1900   45.4300 H   0  0  0  0  0  0  0  0  0  0  0  0
   -1.8200   40.0600   46.4600 H   0  0  0  0  0  0  0  0  0  0  0  0
   -2.3400   39.6600   44.4300 C   0  0  0  0  0  0  0  0  0  0  0  0
   -2.9500   38.7900   44.6200 H   0  0  0  0  0  0  0  0  0  0  0  0
   -1.5400   39.4100   43.7600 H   0  0  0  0  0  0  0  0  0  0  0  0
   -3.5000   40.1700   43.6000 C   0  0  0  0  0  0  0  0  0  0  0  0
   -4.4900   40.3400   44.0700 H   0  0  0  0  0  0  0  0  0  0  0  0
   -4.0800   39.4500   43.0200 H   0  0  0  0  0  0  0  0  0  0  0  0
   -2.8300   40.7400   42.3700 C   0  0  0  0  0  0  0  0  0  0  0  0
   -2.6100   41.4800   43.0900 H   0  0  0  0  0  0  0  0  0  0  0  0
   -3.6200   41.1000   41.7200 H   0  0  0  0  0  0  0  0  0  0  0  0
   -1.4000   40.3900   41.7200 C   0  0  0  0  0  0  0  0  0  0  0  0
   -1.2600   39.4400   41.3700 H   0  0  0  0  0  0  0  0  0  0  0  0
   -0.4900   40.1300   42.2900 H   0  0  0  0  0  0  0  0  0  0  0  0
   -1.2300   40.4900   40.2300 C   0  0  0  0  0  0  0  0  0  0  0  0
   -0.7300   40.9900   39.4800 H   0  0  0  0  0  0  0  0  0  0  0  0
   -0.5600   41.2800   40.6200 H   0  0  0  0  0  0  0  0  0  0  0  0
   -2.2900   40.6900   39.9200 H   0  0  0  0  0  0  0  0  0  0  0  0
    4.2100   42.5000   49.4600 C   0  0  0  0  0  0  0  0  0  0  0  0
    3.5100   43.3800   49.3500 H   0  0  0  0  0  0  0  0  0  0  0  0
    3.2100   42.2400   49.1500 H   0  0  0  0  0  0  0  0  0  0  0  0
    5.6100   42.0800   48.5100 C   0  0  0  0  0  0  0  0  0  0  0  0
    5.8400   41.0900   48.8500 H   0  0  0  0  0  0  0  0  0  0  0  0
    6.3700   42.7900   48.8100 H   0  0  0  0  0  0  0  0  0  0  0  0
    6.0300   41.7700   46.8400 C   0  0  0  0  0  0  0  0  0  0  0  0
    5.8700   42.6200   46.2100 H   0  0  0  0  0  0  0  0  0  0  0  0
    5.2800   41.1400   46.3800 H   0  0  0  0  0  0  0  0  0  0  0  0
    7.1100   42.2800   45.7200 C   0  0  0  0  0  0  0  0  0  0  0  0
    7.7500   41.4000   45.6900 H   0  0  0  0  0  0  0  0  0  0  0  0
    7.6900   43.1900   45.9800 H   0  0  0  0  0  0  0  0  0  0  0  0
    6.6500   42.4500   44.1800 C   0  0  0  0  0  0  0  0  0  0  0  0
    7.5300   42.5400   43.5000 H   0  0  0  0  0  0  0  0  0  0  0  0
    6.0300   43.3100   43.8800 H   0  0  0  0  0  0  0  0  0  0  0  0
    5.7900   41.2700   43.7300 C   0  0  0  0  0  0  0  0  0  0  0  0
    4.8100   41.3100   44.2300 H   0  0  0  0  0  0  0  0  0  0  0  0
    6.3300   40.3800   44.0900 H   0  0  0  0  0  0  0  0  0  0  0  0
    5.5000   41.3000   42.2400 C   0  0  0  0  0  0  0  0  0  0  0  0
    6.4500   41.0900   41.7000 H   0  0  0  0  0  0  0  0  0  0  0  0
    5.1400   42.3200   41.9700 H   0  0  0  0  0  0  0  0  0  0  0  0
    4.4100   40.3200   41.8100 C   0  0  0  0  0  0  0  0  0  0  0  0
    3.5300   40.3200   42.5000 H   0  0  0  0  0  0  0  0  0  0  0  0
    4.8300   39.2900   41.8600 H   0  0  0  0  0  0  0  0  0  0  0  0
    3.9500   40.6400   40.3900 C   0  0  0  0  0  0  0  0  0  0  0  0
    3.3900   39.7400   40.0300 H   0  0  0  0  0  0  0  0  0  0  0  0
    4.8600   40.7900   39.7700 H   0  0  0  0  0  0  0  0  0  0  0  0
    3.0300   41.8300   40.1700 C   0  0  0  0  0  0  0  0  0  0  0  0
    3.5700   42.8000   40.1300 H   0  0  0  0  0  0  0  0  0  0  0  0
    2.2700   41.9100   40.9800 H   0  0  0  0  0  0  0  0  0  0  0  0
    2.2600   41.7000   38.8600 C   0  0  0  0  0  0  0  0  0  0  0  0
    1.5200   40.8700   38.9700 H   0  0  0  0  0  0  0  0  0  0  0  0
    2.8800   41.3900   38.0000 H   0  0  0  0  0  0  0  0  0  0  0  0
    1.6100   43.0500   38.6000 C   0  0  0  0  0  0  0  0  0  0  0  0
    0.9500   43.3900   39.4200 H   0  0  0  0  0  0  0  0  0  0  0  0
    0.9600   42.9800   37.7800 H   0  0  0  0  0  0  0  0  0  0  0  0
    2.3200   43.8300   38.3000 H   0  0  0  0  0  0  0  0  0  0  0  0
  1 14  1  0  0  0  0
  1  2  1  0  0  0  0
  2  3  1  0  0  0  0
  2  4  1  0  0  0  0
  2  5  1  0  0  0  0
  6  7  1  0  0  0  0
  6  8  1  0  0  0  0
  6  1  1  0  0  0  0
  9  6  1  0  0  0  0
 10 11  1  0  0  0  0
 10  1  1  0  0  0  0
 12 10  1  0  0  0  0
 13 10  1  0  0  0  0
 14 16  1  0  0  0  0
 14 17  1  0  0  0  0
 15 14  1  0  0  0  0
 17 19  1  0  0  0  0
 18 17  1  0  0  0  0
 20 24  1  6  0  0  0
 20 21  2  0  0  0  0
 20 22  1  0  0  0  0
 23 20  1  0  0  0  0
 24 17  1  0  0  0  0
 25 27  1  0  0  0  0
 25 23  1  0  0  0  0
 26 25  1  0  0  0  0
 28 29  1  1  0  0  0
 28 25  1  0  0  0  0
 30 28  1  0  0  0  0
 31 30  1  0  0  0  0
 32 31  2  0  0  0  0
 33 35  1  0  0  0  0
 33 31  1  0  0  0  0
 34 33  1  0  0  0  0
 36 37  1  0  0  0  0
 36 28  1  0  0  0  0
 38 36  1  0  0  0  0
 39 36  1  0  0  0  0
 40 39  1  0  0  0  0
 41 40  2  0  0  0  0
 42 44  1  0  0  0  0
 42 43  1  0  0  0  0
 42 40  1  0  0  0  0
 45 46  1  0  0  0  0
 45 33  1  0  0  0  0
 47 45  1  0  0  0  0
 48 50  1  0  0  0  0
 48 45  1  0  0  0  0
 49 48  1  0  0  0  0
 51 52  1  0  0  0  0
 51 48  1  0  0  0  0
 53 51  1  0  0  0  0
 54 55  1  0  0  0  0
 54 51  1  0  0  0  0
 56 54  1  0  0  0  0
 57 54  1  0  0  0  0
 57 59  1  0  0  0  0
 58 57  1  0  0  0  0
 60 61  1  0  0  0  0
 60 57  1  0  0  0  0
 62 60  1  0  0  0  0
 63 60  1  0  0  0  0
 63 65  1  0  0  0  0
 64 63  1  0  0  0  0
 66 67  1  0  0  0  0
 66 63  1  0  0  0  0
 68 66  1  0  0  0  0
 69 70  1  0  0  0  0
 69 66  1  0  0  0  0
 71 69  1  0  0  0  0
 72 73  1  0  0  0  0
 72 69  1  0  0  0  0
 74 72  1  0  0  0  0
 75 77  1  0  0  0  0
 75 72  1  0  0  0  0
 76 75  1  0  0  0  0
 78 80  1  0  0  0  0
 78 75  1  0  0  0  0
 79 78  1  0  0  0  0
 81 78  1  0  0  0  0
 82 42  1  0  0  0  0
 83 82  1  0  0  0  0
 84 82  1  0  0  0  0
 85 87  1  0  0  0  0
 85 86  1  0  0  0  0
 85 82  1  0  0  0  0
 88 85  1  0  0  0  0
 89 88  1  0  0  0  0
 90 88  1  0  0  0  0
 91 93  1  0  0  0  0
 91 88  1  0  0  0  0
 92 91  1  0  0  0  0
 94 91  1  0  0  0  0
 95 94  1  0  0  0  0
 96 94  1  0  0  0  0
 97 99  1  0  0  0  0
 97 94  1  0  0  0  0
 97 98  1  0  0  0  0
100 97  1  0  0  0  0
101100  1  0  0  0  0
102100  1  0  0  0  0
103105  1  0  0  0  0
103100  1  0  0  0  0
103104  1  0  0  0  0
106103  1  0  0  0  0
107106  1  0  0  0  0
108106  1  0  0  0  0
109106  1  0  0  0  0
109111  1  0  0  0  0
110109  1  0  0  0  0
112113  1  0  0  0  0
112109  1  0  0  0  0
114112  1  0  0  0  0
115112  1  0  0  0  0
115116  1  0  0  0  0
117115  1  0  0  0  0
118115  1  0  0  0  0
M  END
