PNPI33
 OpenBabel02161614153D

143142  0  0  1  0  0  0  0  0999 V2000
   25.7000   13.5200   62.1200 C   0  0  2  0  0  0  0  0  0  0  0  0
   26.7100   13.2700   61.7100 H   0  0  0  0  0  0  0  0  0  0  0  0
   24.7400   12.7100   61.4600 O   0  0  0  0  0  0  0  0  0  0  0  0
   24.9100   11.8000   61.7500 H   0  0  0  0  0  0  0  0  0  0  0  0
   25.7900   13.2100   63.6000 C   0  0  2  0  0  0  0  0  0  0  0  0
   26.6000   13.8700   64.0300 H   0  0  0  0  0  0  0  0  0  0  0  0
   26.0800   11.8000   63.7000 O   0  0  0  0  0  0  0  0  0  0  0  0
   27.6000   11.4000   64.0300 P   0  0  1  0  0  0  0  0  0  0  0  0
   28.0000   10.9400   62.5500 O   0  0  0  0  0  0  0  0  0  0  0  0
   27.7500   10.0400   62.3400 H   0  0  0  0  0  0  0  0  0  0  0  0
   28.4800   12.5500   64.4900 O   0  0  0  0  0  0  0  0  0  0  0  0
   27.6900   10.2400   64.9400 O   0  0  0  0  0  0  0  0  0  0  0  0
   24.5300   13.6000   64.3400 C   0  0  1  0  0  0  0  0  0  0  0  0
   23.6900   13.0200   63.8800 H   0  0  0  0  0  0  0  0  0  0  0  0
   24.8000   13.2700   65.7200 O   0  0  0  0  0  0  0  0  0  0  0  0
   23.7200   12.3100   66.5100 P   0  0  0  0  0  0  0  0  0  0  0  0
   22.4800   13.1600   66.7900 O   0  0  0  0  0  0  0  0  0  0  0  0
   24.3700   11.8100   67.8300 O   0  0  0  0  0  0  0  0  0  0  0  0
   23.4500   11.1300   65.5700 O   0  0  0  0  0  0  0  0  0  0  0  0
   24.2500   15.1000   64.1700 C   0  0  2  0  0  0  0  0  0  0  0  0
   25.1300   15.6300   64.5800 H   0  0  0  0  0  0  0  0  0  0  0  0
   23.0400   15.4700   64.8700 O   0  0  0  0  0  0  0  0  0  0  0  0
   23.0800   16.5600   66.1700 P   0  0  0  0  0  0  0  0  0  0  0  0
   23.4100   17.9300   65.5700 O   0  0  0  0  0  0  0  0  0  0  0  0
   21.6700   16.5700   66.7900 O   0  0  0  0  0  0  0  0  0  0  0  0
   24.1400   16.2000   67.2000 O   0  0  0  0  0  0  0  0  0  0  0  0
   24.1500   15.4100   62.6600 C   0  0  1  0  0  0  0  0  0  0  0  0
   23.3100   14.8000   62.2600 H   0  0  0  0  0  0  0  0  0  0  0  0
   23.8800   16.8100   62.4400 O   0  0  0  0  0  0  0  0  0  0  0  0
   23.1600   16.9100   61.8200 H   0  0  0  0  0  0  0  0  0  0  0  0
   25.4300   15.0000   61.9200 C   0  0  2  0  0  0  0  0  0  0  0  0
   26.2300   15.5900   62.4500 H   0  0  0  0  0  0  0  0  0  0  0  0
   26.9500   15.6300   59.8200 P   0  0  2  0  0  0  0  0  0  0  0  0
   27.9100   14.5100   59.9900 O   0  0  0  0  0  0  0  0  0  0  0  0
   27.4000   16.9100   60.4200 O   0  0  0  0  0  0  0  0  0  0  0  0
   25.4600   15.2700   60.5000 O   0  0  0  0  0  0  0  0  0  0  0  0
   26.6700   15.7800   58.2700 O   0  0  0  0  0  0  0  0  0  0  0  0
   26.4600   14.6500   57.4100 C   0  0  0  0  0  0  0  0  0  0  0  0
   25.5300   14.8100   56.8100 H   0  0  0  0  0  0  0  0  0  0  0  0
   26.3400   13.7000   57.9700 H   0  0  0  0  0  0  0  0  0  0  0  0
   27.6200   14.4400   56.4000 C   0  0  2  0  0  0  0  0  0  0  0  0
   28.5900   14.3300   56.9500 H   0  0  0  0  0  0  0  0  0  0  0  0
   27.6300   15.5800   55.5400 O   0  0  0  0  0  0  0  0  0  0  0  0
   28.7700   15.9700   55.0800 C   0  0  0  0  0  0  0  0  0  0  0  0
   29.8700   15.4700   55.2000 O   0  0  0  0  0  0  0  0  0  0  0  0
   28.4900   17.2600   54.3600 C   0  0  0  0  0  0  0  0  0  0  0  0
   29.3200   17.8700   54.6000 H   0  0  0  0  0  0  0  0  0  0  0  0
   27.6600   17.8200   54.8000 H   0  0  0  0  0  0  0  0  0  0  0  0
   27.4000   13.1900   55.5500 C   0  0  0  0  0  0  0  0  0  0  0  0
   27.4700   12.2700   56.1800 H   0  0  0  0  0  0  0  0  0  0  0  0
   26.3300   13.2500   55.2200 H   0  0  0  0  0  0  0  0  0  0  0  0
   28.3800   13.1900   54.4600 O   0  0  0  0  0  0  0  0  0  0  0  0
   27.8700   12.7800   53.3400 C   0  0  0  0  0  0  0  0  0  0  0  0
   26.7400   12.3300   53.2500 O   0  0  0  0  0  0  0  0  0  0  0  0
   28.9200   12.8100   52.1600 C   0  0  0  0  0  0  0  0  0  0  0  0
   29.6000   11.9500   52.0400 H   0  0  0  0  0  0  0  0  0  0  0  0
   29.6200   13.6200   52.3400 H   0  0  0  0  0  0  0  0  0  0  0  0
   28.3500   16.9800   52.8600 C   0  0  0  0  0  0  0  0  0  0  0  0
   29.0200   16.1500   52.5400 H   0  0  0  0  0  0  0  0  0  0  0  0
   28.6300   17.8800   52.2700 H   0  0  0  0  0  0  0  0  0  0  0  0
   26.9000   16.5900   52.6000 C   0  0  0  0  0  0  0  0  0  0  0  0
   26.2900   16.8000   53.5200 H   0  0  0  0  0  0  0  0  0  0  0  0
   26.8900   15.5000   52.4400 H   0  0  0  0  0  0  0  0  0  0  0  0
   26.3100   17.3100   51.3900 C   0  0  0  0  0  0  0  0  0  0  0  0
   27.0800   17.2200   50.5900 H   0  0  0  0  0  0  0  0  0  0  0  0
   26.1400   18.3800   51.6200 H   0  0  0  0  0  0  0  0  0  0  0  0
   25.0000   16.6800   50.9100 C   0  0  0  0  0  0  0  0  0  0  0  0
   24.2800   16.6900   51.7600 H   0  0  0  0  0  0  0  0  0  0  0  0
   25.1900   15.6300   50.6200 H   0  0  0  0  0  0  0  0  0  0  0  0
   24.3900   17.4200   49.7100 C   0  0  0  0  0  0  0  0  0  0  0  0
   25.1900   17.5800   48.9500 H   0  0  0  0  0  0  0  0  0  0  0  0
   24.0000   18.4100   50.0300 H   0  0  0  0  0  0  0  0  0  0  0  0
   23.2900   16.6200   48.9900 C   0  0  0  0  0  0  0  0  0  0  0  0
   22.4000   16.5100   49.6500 H   0  0  0  0  0  0  0  0  0  0  0  0
   23.6800   15.6200   48.7500 H   0  0  0  0  0  0  0  0  0  0  0  0
   22.9100   17.3300   47.7400 C   0  0  0  0  0  0  0  0  0  0  0  0
   22.3300   18.2300   47.9500 H   0  0  0  0  0  0  0  0  0  0  0  0
   23.0100   16.9000   46.4600 C   0  0  0  0  0  0  0  0  0  0  0  0
   22.5800   17.4700   45.6200 H   0  0  0  0  0  0  0  0  0  0  0  0
   23.5400   15.5800   46.0100 C   0  0  0  0  0  0  0  0  0  0  0  0
   23.0700   15.2600   45.0500 H   0  0  0  0  0  0  0  0  0  0  0  0
   23.1200   14.8600   46.7300 H   0  0  0  0  0  0  0  0  0  0  0  0
   25.0400   15.4200   46.0100 C   0  0  0  0  0  0  0  0  0  0  0  0
   25.3400   14.5100   46.5100 H   0  0  0  0  0  0  0  0  0  0  0  0
   26.0200   16.2600   45.6100 C   0  0  0  0  0  0  0  0  0  0  0  0
   27.0700   15.9300   45.7300 H   0  0  0  0  0  0  0  0  0  0  0  0
   25.8600   17.6500   45.0500 C   0  0  0  0  0  0  0  0  0  0  0  0
   26.4900   18.3400   45.6700 H   0  0  0  0  0  0  0  0  0  0  0  0
   24.8300   18.0100   45.1800 H   0  0  0  0  0  0  0  0  0  0  0  0
   26.0700   17.9100   43.6000 C   0  0  0  0  0  0  0  0  0  0  0  0
   25.2900   17.6100   42.9000 H   0  0  0  0  0  0  0  0  0  0  0  0
   27.2300   18.2700   43.0800 C   0  0  0  0  0  0  0  0  0  0  0  0
   27.3700   18.4100   42.0000 H   0  0  0  0  0  0  0  0  0  0  0  0
   28.4800   18.4500   43.7800 C   0  0  0  0  0  0  0  0  0  0  0  0
   28.5600   18.1100   44.8400 H   0  0  0  0  0  0  0  0  0  0  0  0
   28.4600   19.5400   43.8500 H   0  0  0  0  0  0  0  0  0  0  0  0
   29.5500   17.7000   42.9100 C   0  0  0  0  0  0  0  0  0  0  0  0
   29.5500   17.9500   41.8200 H   0  0  0  0  0  0  0  0  0  0  0  0
   30.6500   17.7500   42.9500 H   0  0  0  0  0  0  0  0  0  0  0  0
   29.7600   16.7000   43.3100 H   0  0  0  0  0  0  0  0  0  0  0  0
   28.1600   12.8400   50.8200 C   0  0  0  0  0  0  0  0  0  0  0  0
   27.3900   13.6200   50.9200 H   0  0  0  0  0  0  0  0  0  0  0  0
   27.6300   11.8800   50.6200 H   0  0  0  0  0  0  0  0  0  0  0  0
   29.0700   13.1300   49.6300 C   0  0  0  0  0  0  0  0  0  0  0  0
   29.7800   12.2700   49.4900 H   0  0  0  0  0  0  0  0  0  0  0  0
   29.6500   14.0400   49.8700 H   0  0  0  0  0  0  0  0  0  0  0  0
   28.2700   13.3700   48.3400 C   0  0  0  0  0  0  0  0  0  0  0  0
   28.9100   13.9100   47.6000 H   0  0  0  0  0  0  0  0  0  0  0  0
   27.4000   14.0300   48.5700 H   0  0  0  0  0  0  0  0  0  0  0  0
   27.7400   12.0600   47.7600 C   0  0  0  0  0  0  0  0  0  0  0  0
   27.3500   11.4200   48.5800 H   0  0  0  0  0  0  0  0  0  0  0  0
   28.6000   11.5100   47.3000 H   0  0  0  0  0  0  0  0  0  0  0  0
   26.6200   12.2600   46.7400 C   0  0  0  0  0  0  0  0  0  0  0  0
   26.9100   13.0900   46.0500 H   0  0  0  0  0  0  0  0  0  0  0  0
   25.6600   12.5200   47.2300 H   0  0  0  0  0  0  0  0  0  0  0  0
   26.4300   11.0100   45.9100 C   0  0  0  0  0  0  0  0  0  0  0  0
   26.0300   10.1800   46.5400 H   0  0  0  0  0  0  0  0  0  0  0  0
   27.4500   10.7400   45.5800 H   0  0  0  0  0  0  0  0  0  0  0  0
   25.4500   11.2100   44.7500 C   0  0  0  0  0  0  0  0  0  0  0  0
   24.4900   11.5400   45.1900 H   0  0  0  0  0  0  0  0  0  0  0  0
   25.2800   10.2100   44.2700 H   0  0  0  0  0  0  0  0  0  0  0  0
   25.8500   12.2000   43.6400 C   0  0  0  0  0  0  0  0  0  0  0  0
   25.8700   13.2600   43.9500 H   0  0  0  0  0  0  0  0  0  0  0  0
   25.0700   12.0900   42.8700 H   0  0  0  0  0  0  0  0  0  0  0  0
   27.1900   11.8100   43.0400 C   0  0  0  0  0  0  0  0  0  0  0  0
   26.9500   10.8900   42.5100 H   0  0  0  0  0  0  0  0  0  0  0  0
   27.9900   11.7500   43.8000 H   0  0  0  0  0  0  0  0  0  0  0  0
   27.7300   12.5700   41.8600 C   0  0  0  0  0  0  0  0  0  0  0  0
   27.6100   13.5500   42.2900 H   0  0  0  0  0  0  0  0  0  0  0  0
   26.9600   12.4400   41.0800 H   0  0  0  0  0  0  0  0  0  0  0  0
   29.2400   12.2300   41.5000 C   0  0  0  0  0  0  0  0  0  0  0  0
   29.3700   11.1400   41.4800 H   0  0  0  0  0  0  0  0  0  0  0  0
   29.8500   12.6800   42.3200 H   0  0  0  0  0  0  0  0  0  0  0  0
   29.9300   12.5500   40.1000 C   0  0  0  0  0  0  0  0  0  0  0  0
   29.5500   11.9800   39.2600 H   0  0  0  0  0  0  0  0  0  0  0  0
   31.0000   12.4600   40.0600 H   0  0  0  0  0  0  0  0  0  0  0  0
   29.9600   13.9400   39.3900 C   0  0  0  0  0  0  0  0  0  0  0  0
   30.8400   14.3100   39.0200 H   0  0  0  0  0  0  0  0  0  0  0  0
   30.5700   14.1800   40.3800 H   0  0  0  0  0  0  0  0  0  0  0  0
   27.6700   16.0300   38.9400 C   0  0  0  0  0  0  0  0  0  0  0  0
   27.9700   16.9200   39.0400 H   0  0  0  0  0  0  0  0  0  0  0  0
   28.2100   15.9300   38.1500 H   0  0  0  0  0  0  0  0  0  0  0  0
   27.2400   15.6500   39.9400 H   0  0  0  0  0  0  0  0  0  0  0  0
  1  2  1  6  0  0  0
  1  5  1  0  0  0  0
  3  4  1  0  0  0  0
  3  1  1  0  0  0  0
  5  7  1  0  0  0  0
  5  6  1  1  0  0  0
  5 13  1  0  0  0  0
  7  8  1  0  0  0  0
  8  9  1  6  0  0  0
  8 11  2  0  0  0  0
  8 12  1  0  0  0  0
 10  9  1  0  0  0  0
 13 14  1  6  0  0  0
 13 15  1  0  0  0  0
 15 16  1  0  0  0  0
 16 17  1  0  0  0  0
 16 18  1  0  0  0  0
 19 16  2  0  0  0  0
 20 13  1  0  0  0  0
 20 21  1  1  0  0  0
 20 22  1  0  0  0  0
 22 23  1  0  0  0  0
 23 25  1  0  0  0  0
 23 26  1  0  0  0  0
 24 23  2  0  0  0  0
 27 28  1  6  0  0  0
 27 20  1  0  0  0  0
 29 27  1  0  0  0  0
 30 29  1  0  0  0  0
 31  1  1  0  0  0  0
 31 32  1  1  0  0  0
 31 27  1  0  0  0  0
 33 37  1  6  0  0  0
 33 34  2  0  0  0  0
 33 35  1  0  0  0  0
 33 36  1  0  0  0  0
 36 31  1  0  0  0  0
 38 40  1  0  0  0  0
 38 37  1  0  0  0  0
 39 38  1  0  0  0  0
 41 42  1  1  0  0  0
 41 38  1  0  0  0  0
 43 41  1  0  0  0  0
 44 45  2  0  0  0  0
 44 43  1  0  0  0  0
 46 47  1  0  0  0  0
 46 48  1  0  0  0  0
 46 44  1  0  0  0  0
 49 50  1  0  0  0  0
 49 41  1  0  0  0  0
 51 49  1  0  0  0  0
 52 49  1  0  0  0  0
 53 52  1  0  0  0  0
 54 53  2  0  0  0  0
 55 57  1  0  0  0  0
 55 53  1  0  0  0  0
 56 55  1  0  0  0  0
 58 46  1  0  0  0  0
 59 58  1  0  0  0  0
 60 58  1  0  0  0  0
 61 58  1  0  0  0  0
 61 62  1  0  0  0  0
 63 61  1  0  0  0  0
 64 66  1  0  0  0  0
 64 61  1  0  0  0  0
 65 64  1  0  0  0  0
 67 64  1  0  0  0  0
 67 68  1  0  0  0  0
 69 67  1  0  0  0  0
 70 72  1  0  0  0  0
 70 67  1  0  0  0  0
 71 70  1  0  0  0  0
 73 74  1  0  0  0  0
 73 70  1  0  0  0  0
 75 73  1  0  0  0  0
 76 77  1  0  0  0  0
 76 73  1  0  0  0  0
 78 76  2  0  0  0  0
 79 78  1  0  0  0  0
 80 78  1  0  0  0  0
 80 82  1  0  0  0  0
 81 80  1  0  0  0  0
 83 80  1  0  0  0  0
 83 84  1  0  0  0  0
 85 86  1  0  0  0  0
 85 83  2  0  0  0  0
 87 89  1  0  0  0  0
 87 85  1  0  0  0  0
 87 88  1  0  0  0  0
 90 87  1  0  0  0  0
 91 90  1  0  0  0  0
 92 90  2  0  0  0  0
 92 94  1  0  0  0  0
 93 92  1  0  0  0  0
 94 96  1  0  0  0  0
 94 95  1  0  0  0  0
 97 99  1  0  0  0  0
 97100  1  0  0  0  0
 97 94  1  0  0  0  0
 98 97  1  0  0  0  0
101102  1  0  0  0  0
101 55  1  0  0  0  0
103101  1  0  0  0  0
104106  1  0  0  0  0
104101  1  0  0  0  0
105104  1  0  0  0  0
107109  1  0  0  0  0
107104  1  0  0  0  0
108107  1  0  0  0  0
110107  1  0  0  0  0
110111  1  0  0  0  0
112110  1  0  0  0  0
113115  1  0  0  0  0
113110  1  0  0  0  0
114113  1  0  0  0  0
116117  1  0  0  0  0
116113  1  0  0  0  0
118116  1  0  0  0  0
119120  1  0  0  0  0
119116  1  0  0  0  0
121119  1  0  0  0  0
122123  1  0  0  0  0
122119  1  0  0  0  0
124122  1  0  0  0  0
125122  1  0  0  0  0
125127  1  0  0  0  0
126125  1  0  0  0  0
128129  1  0  0  0  0
128125  1  0  0  0  0
130128  1  0  0  0  0
131128  1  0  0  0  0
131133  1  0  0  0  0
132131  1  0  0  0  0
134131  1  0  0  0  0
135134  1  0  0  0  0
136134  1  0  0  0  0
137134  1  0  0  0  0
137139  1  0  0  0  0
138137  1  0  0  0  0
140141  1  0  0  0  0
140143  1  0  0  0  0
142140  1  0  0  0  0
M  END
