SAPI34
 OpenBabel02161614153D

153152  0  0  1  0  0  0  0  0999 V2000
   45.1000   53.2600   63.5200 C   0  0  2  0  0  0  0  0  0  0  0  0
   45.6700   52.4800   62.9400 H   0  0  0  0  0  0  0  0  0  0  0  0
   43.7200   52.9800   63.4700 O   0  0  0  0  0  0  0  0  0  0  0  0
   43.3400   53.8500   63.5500 H   0  0  0  0  0  0  0  0  0  0  0  0
   45.5600   53.2100   64.9400 C   0  0  2  0  0  0  0  0  0  0  0  0
   46.6700   53.4100   64.9900 H   0  0  0  0  0  0  0  0  0  0  0  0
   45.2300   51.9300   65.4900 O   0  0  0  0  0  0  0  0  0  0  0  0
   46.4300   50.8200   65.6900 P   0  0  0  0  0  0  0  0  0  0  0  0
   45.8700   49.4400   65.7900 O   0  0  0  0  0  0  0  0  0  0  0  0
   47.2300   51.1000   66.9800 O   0  0  0  0  0  0  0  0  0  0  0  0
   47.3500   51.0100   64.5000 O   0  0  0  0  0  0  0  0  0  0  0  0
   44.8400   54.2500   65.7300 C   0  0  1  0  0  0  0  0  0  0  0  0
   43.7400   54.1300   65.6500 H   0  0  0  0  0  0  0  0  0  0  0  0
   45.2900   54.1300   67.0700 O   0  0  0  0  0  0  0  0  0  0  0  0
   44.3100   53.5600   68.2300 P   0  0  1  0  0  0  0  0  0  0  0  0
   44.1900   54.6300   69.3600 O   0  0  0  0  0  0  0  0  0  0  0  0
   43.6300   55.3800   69.1700 H   0  0  0  0  0  0  0  0  0  0  0  0
   42.8700   53.4400   67.7600 O   0  0  0  0  0  0  0  0  0  0  0  0
   44.9900   52.4400   69.0000 O   0  0  0  0  0  0  0  0  0  0  0  0
   45.0800   55.6100   65.1500 C   0  0  2  0  0  0  0  0  0  0  0  0
   46.1300   55.7300   64.7600 H   0  0  0  0  0  0  0  0  0  0  0  0
   44.7200   56.5200   66.1800 O   0  0  0  0  0  0  0  0  0  0  0  0
   45.3800   57.8700   66.7500 P   0  0  0  0  0  0  0  0  0  0  0  0
   44.2900   58.5000   67.5200 O   0  0  0  0  0  0  0  0  0  0  0  0
   46.5000   57.5700   67.7000 O   0  0  0  0  0  0  0  0  0  0  0  0
   45.7200   58.7400   65.5800 O   0  0  0  0  0  0  0  0  0  0  0  0
   44.5200   55.7700   63.8300 C   0  0  1  0  0  0  0  0  0  0  0  0
   43.4600   55.6000   63.7200 H   0  0  0  0  0  0  0  0  0  0  0  0
   44.6400   57.2000   63.7000 O   0  0  0  0  0  0  0  0  0  0  0  0
   43.8600   57.7400   63.8400 H   0  0  0  0  0  0  0  0  0  0  0  0
   45.3100   54.6600   62.9300 C   0  0  2  0  0  0  0  0  0  0  0  0
   46.4300   54.8100   62.9700 H   0  0  0  0  0  0  0  0  0  0  0  0
   45.8800   54.1400   60.3300 P   0  0  2  0  0  0  0  0  0  0  0  0
   46.2000   52.7000   60.4100 O   0  0  0  0  0  0  0  0  0  0  0  0
   47.0000   55.1000   60.2100 O   0  0  0  0  0  0  0  0  0  0  0  0
   44.8800   54.5900   61.5700 O   0  0  0  0  0  0  0  0  0  0  0  0
   44.9000   54.3800   59.1100 O   0  0  0  0  0  0  0  0  0  0  0  0
   44.1100   55.5700   59.0300 C   0  0  0  0  0  0  0  0  0  0  0  0
   43.2300   55.5400   59.7300 H   0  0  0  0  0  0  0  0  0  0  0  0
   44.6800   56.5000   59.2700 H   0  0  0  0  0  0  0  0  0  0  0  0
   43.6200   55.7600   57.5900 C   0  0  2  0  0  0  0  0  0  0  0  0
   42.8500   54.9900   57.3200 H   0  0  0  0  0  0  0  0  0  0  0  0
   44.7000   55.9200   56.6500 O   0  0  0  0  0  0  0  0  0  0  0  0
   44.9600   54.7900   56.0800 C   0  0  0  0  0  0  0  0  0  0  0  0
   44.2900   53.7700   56.1700 O   0  0  0  0  0  0  0  0  0  0  0  0
   46.2200   54.9400   55.2600 C   0  0  0  0  0  0  0  0  0  0  0  0
   46.1500   54.1900   54.4400 H   0  0  0  0  0  0  0  0  0  0  0  0
   46.3000   55.9300   54.7800 H   0  0  0  0  0  0  0  0  0  0  0  0
   42.8800   57.0100   57.5300 C   0  0  0  0  0  0  0  0  0  0  0  0
   43.5300   57.8100   57.8600 H   0  0  0  0  0  0  0  0  0  0  0  0
   41.9900   56.9000   58.2000 H   0  0  0  0  0  0  0  0  0  0  0  0
   42.7000   57.4100   56.2000 O   0  0  0  0  0  0  0  0  0  0  0  0
   41.7700   56.8400   55.4600 C   0  0  0  0  0  0  0  0  0  0  0  0
   40.8100   56.2200   55.8500 O   0  0  0  0  0  0  0  0  0  0  0  0
   41.9800   57.3500   54.1100 C   0  0  0  0  0  0  0  0  0  0  0  0
   42.9500   57.3500   53.6100 H   0  0  0  0  0  0  0  0  0  0  0  0
   42.1400   58.3600   54.4700 H   0  0  0  0  0  0  0  0  0  0  0  0
   47.3900   54.6300   56.2300 C   0  0  0  0  0  0  0  0  0  0  0  0
   47.3700   53.5400   56.4400 H   0  0  0  0  0  0  0  0  0  0  0  0
   47.2100   55.1400   57.2100 H   0  0  0  0  0  0  0  0  0  0  0  0
   48.7800   55.0100   55.7100 C   0  0  0  0  0  0  0  0  0  0  0  0
   48.9100   54.6300   54.6700 H   0  0  0  0  0  0  0  0  0  0  0  0
   49.5700   54.5500   56.3500 H   0  0  0  0  0  0  0  0  0  0  0  0
   48.9100   56.4800   55.8400 C   0  0  0  0  0  0  0  0  0  0  0  0
   49.1700   56.8600   56.8400 H   0  0  0  0  0  0  0  0  0  0  0  0
   49.0200   57.3100   54.8100 C   0  0  0  0  0  0  0  0  0  0  0  0
   48.9600   58.3900   54.9900 H   0  0  0  0  0  0  0  0  0  0  0  0
   49.0800   56.9800   53.3700 C   0  0  0  0  0  0  0  0  0  0  0  0
   49.8100   56.1700   53.1500 H   0  0  0  0  0  0  0  0  0  0  0  0
   49.4300   57.9200   52.9500 H   0  0  0  0  0  0  0  0  0  0  0  0
   47.8600   56.9600   52.5700 C   0  0  0  0  0  0  0  0  0  0  0  0
   47.0900   57.6300   52.9700 H   0  0  0  0  0  0  0  0  0  0  0  0
   47.7400   56.3600   51.3900 C   0  0  0  0  0  0  0  0  0  0  0  0
   46.7600   56.3900   50.9000 H   0  0  0  0  0  0  0  0  0  0  0  0
   48.8000   55.5900   50.6400 C   0  0  0  0  0  0  0  0  0  0  0  0
   49.8200   55.7500   51.0700 H   0  0  0  0  0  0  0  0  0  0  0  0
   48.8800   55.9100   49.5800 H   0  0  0  0  0  0  0  0  0  0  0  0
   48.4100   54.1400   50.7600 C   0  0  0  0  0  0  0  0  0  0  0  0
   48.5200   53.7500   51.7900 H   0  0  0  0  0  0  0  0  0  0  0  0
   48.2000   53.2600   49.7600 C   0  0  0  0  0  0  0  0  0  0  0  0
   48.0600   52.2000   50.0200 H   0  0  0  0  0  0  0  0  0  0  0  0
   48.2900   53.5500   48.2900 C   0  0  0  0  0  0  0  0  0  0  0  0
   48.6300   52.6300   47.7500 H   0  0  0  0  0  0  0  0  0  0  0  0
   49.0600   54.3200   48.0700 H   0  0  0  0  0  0  0  0  0  0  0  0
   46.9600   54.0000   47.7500 C   0  0  0  0  0  0  0  0  0  0  0  0
   46.1400   54.1000   48.4900 H   0  0  0  0  0  0  0  0  0  0  0  0
   46.7300   54.3500   46.4800 C   0  0  0  0  0  0  0  0  0  0  0  0
   45.7000   54.5800   46.1800 H   0  0  0  0  0  0  0  0  0  0  0  0
   47.7500   54.3500   45.3800 C   0  0  0  0  0  0  0  0  0  0  0  0
   48.7900   54.2600   45.7800 H   0  0  0  0  0  0  0  0  0  0  0  0
   47.6900   55.3000   44.8100 H   0  0  0  0  0  0  0  0  0  0  0  0
   47.5300   53.2200   44.3700 C   0  0  0  0  0  0  0  0  0  0  0  0
   47.3500   52.2600   44.9100 H   0  0  0  0  0  0  0  0  0  0  0  0
   48.4800   53.1100   43.8000 H   0  0  0  0  0  0  0  0  0  0  0  0
   46.3700   53.5000   43.4000 C   0  0  0  0  0  0  0  0  0  0  0  0
   46.6200   54.3500   42.7300 H   0  0  0  0  0  0  0  0  0  0  0  0
   45.4900   53.8000   44.0000 H   0  0  0  0  0  0  0  0  0  0  0  0
   46.0000   52.2600   42.5800 C   0  0  0  0  0  0  0  0  0  0  0  0
   45.5600   51.5100   43.2800 H   0  0  0  0  0  0  0  0  0  0  0  0
   46.9200   51.8000   42.1500 H   0  0  0  0  0  0  0  0  0  0  0  0
   44.9800   52.5300   41.4700 C   0  0  0  0  0  0  0  0  0  0  0  0
   44.1300   53.1000   41.8800 H   0  0  0  0  0  0  0  0  0  0  0  0
   44.5900   51.5700   41.0500 H   0  0  0  0  0  0  0  0  0  0  0  0
   45.4400   53.1300   40.6600 H   0  0  0  0  0  0  0  0  0  0  0  0
   40.7400   57.0700   53.2200 C   0  0  0  0  0  0  0  0  0  0  0  0
   39.8100   57.6200   53.5200 H   0  0  0  0  0  0  0  0  0  0  0  0
   40.5200   56.0000   53.3600 H   0  0  0  0  0  0  0  0  0  0  0  0
   40.9800   57.3400   51.7300 C   0  0  0  0  0  0  0  0  0  0  0  0
   42.0700   57.3600   51.5400 H   0  0  0  0  0  0  0  0  0  0  0  0
   40.5600   58.3200   51.4400 H   0  0  0  0  0  0  0  0  0  0  0  0
   40.2300   56.4000   50.8300 C   0  0  0  0  0  0  0  0  0  0  0  0
   39.2100   56.7500   50.7100 H   0  0  0  0  0  0  0  0  0  0  0  0
   40.3200   55.3600   51.1400 H   0  0  0  0  0  0  0  0  0  0  0  0
   40.6100   56.4200   49.4000 C   0  0  0  0  0  0  0  0  0  0  0  0
   40.2100   57.3300   49.0700 H   0  0  0  0  0  0  0  0  0  0  0  0
   39.8900   55.8300   48.8000 H   0  0  0  0  0  0  0  0  0  0  0  0
   42.1300   56.3700   49.1800 C   0  0  0  0  0  0  0  0  0  0  0  0
   42.3500   55.4500   49.7300 H   0  0  0  0  0  0  0  0  0  0  0  0
   42.6100   57.2900   49.6000 H   0  0  0  0  0  0  0  0  0  0  0  0
   42.7900   56.1200   47.8300 C   0  0  0  0  0  0  0  0  0  0  0  0
   43.8500   55.8400   47.9000 H   0  0  0  0  0  0  0  0  0  0  0  0
   42.9500   57.1200   47.3700 H   0  0  0  0  0  0  0  0  0  0  0  0
   42.0200   55.1200   46.9400 C   0  0  0  0  0  0  0  0  0  0  0  0
   40.9500   55.2900   47.1700 H   0  0  0  0  0  0  0  0  0  0  0  0
   41.9500   54.0600   47.0800 H   0  0  0  0  0  0  0  0  0  0  0  0
   42.4900   55.3600   45.5100 C   0  0  0  0  0  0  0  0  0  0  0  0
   43.4400   54.9100   45.1900 H   0  0  0  0  0  0  0  0  0  0  0  0
   42.6500   56.4600   45.4800 H   0  0  0  0  0  0  0  0  0  0  0  0
   41.6800   54.9100   44.3700 C   0  0  0  0  0  0  0  0  0  0  0  0
   40.6000   55.2400   44.3600 H   0  0  0  0  0  0  0  0  0  0  0  0
   41.5000   53.8600   44.1400 H   0  0  0  0  0  0  0  0  0  0  0  0
   42.5100   55.3400   43.1900 C   0  0  0  0  0  0  0  0  0  0  0  0
   41.6800   55.0500   42.5000 H   0  0  0  0  0  0  0  0  0  0  0  0
   42.6200   54.3300   42.6700 H   0  0  0  0  0  0  0  0  0  0  0  0
   43.1200   57.0500   43.2500 C   0  0  0  0  0  0  0  0  0  0  0  0
   43.4400   57.5700   44.1900 H   0  0  0  0  0  0  0  0  0  0  0  0
   42.4600   58.0100   43.1000 H   0  0  0  0  0  0  0  0  0  0  0  0
   44.0500   57.3500   42.0700 C   0  0  0  0  0  0  0  0  0  0  0  0
   43.5600   57.0500   41.1500 H   0  0  0  0  0  0  0  0  0  0  0  0
   44.8900   56.7500   42.0600 H   0  0  0  0  0  0  0  0  0  0  0  0
   44.6000   58.6400   41.6500 C   0  0  0  0  0  0  0  0  0  0  0  0
   45.0600   59.3900   42.3100 H   0  0  0  0  0  0  0  0  0  0  0  0
   43.7600   59.2000   42.2300 H   0  0  0  0  0  0  0  0  0  0  0  0
   44.3000   58.4500   39.6600 C   0  0  0  0  0  0  0  0  0  0  0  0
   43.7000   59.3800   38.9700 H   0  0  0  0  0  0  0  0  0  0  0  0
   43.2800   58.3600   39.1500 H   0  0  0  0  0  0  0  0  0  0  0  0
   45.3100   58.1900   39.3700 C   0  0  0  0  0  0  0  0  0  0  0  0
   44.9700   58.6600   38.4200 H   0  0  0  0  0  0  0  0  0  0  0  0
   45.0600   57.0900   39.2800 H   0  0  0  0  0  0  0  0  0  0  0  0
   46.5100   58.9800   40.1400 C   0  0  0  0  0  0  0  0  0  0  0  0
   46.4200   59.9600   39.7700 H   0  0  0  0  0  0  0  0  0  0  0  0
   47.1900   58.9000   39.3200 H   0  0  0  0  0  0  0  0  0  0  0  0
   47.5000   59.4300   40.1700 H   0  0  0  0  0  0  0  0  0  0  0  0
  1  2  1  6  0  0  0
  1  5  1  0  0  0  0
  3  1  1  0  0  0  0
  3  4  1  0  0  0  0
  5  6  1  1  0  0  0
  5  7  1  0  0  0  0
  5 12  1  0  0  0  0
  7  8  1  0  0  0  0
  8  9  1  0  0  0  0
  8 10  1  0  0  0  0
 11  8  2  0  0  0  0
 12 13  1  6  0  0  0
 12 14  1  0  0  0  0
 15 14  1  6  0  0  0
 15 19  1  0  0  0  0
 15 16  1  0  0  0  0
 17 16  1  0  0  0  0
 18 15  2  0  0  0  0
 20 21  1  6  0  0  0
 20 12  1  0  0  0  0
 20 22  1  0  0  0  0
 22 23  1  0  0  0  0
 23 24  1  0  0  0  0
 23 25  1  0  0  0  0
 26 23  2  0  0  0  0
 27 28  1  1  0  0  0
 27 20  1  0  0  0  0
 29 27  1  0  0  0  0
 29 30  1  0  0  0  0
 31 32  1  1  0  0  0
 31  1  1  0  0  0  0
 31 27  1  0  0  0  0
 33 37  1  6  0  0  0
 33 34  1  0  0  0  0
 33 36  1  0  0  0  0
 35 33  2  0  0  0  0
 36 31  1  0  0  0  0
 38 37  1  0  0  0  0
 38 40  1  0  0  0  0
 38 39  1  0  0  0  0
 41 42  1  6  0  0  0
 41 38  1  0  0  0  0
 43 41  1  0  0  0  0
 44 45  2  0  0  0  0
 44 43  1  0  0  0  0
 46 44  1  0  0  0  0
 46 58  1  0  0  0  0
 47 46  1  0  0  0  0
 48 46  1  0  0  0  0
 49 41  1  0  0  0  0
 49 50  1  0  0  0  0
 49 51  1  0  0  0  0
 52 49  1  0  0  0  0
 53 54  2  0  0  0  0
 53 52  1  0  0  0  0
 55 57  1  0  0  0  0
 55 53  1  0  0  0  0
 56 55  1  0  0  0  0
 58 59  1  0  0  0  0
 58 60  1  0  0  0  0
 61 64  1  0  0  0  0
 61 58  1  0  0  0  0
 61 63  1  0  0  0  0
 62 61  1  0  0  0  0
 64 65  1  0  0  0  0
 66 67  1  0  0  0  0
 66 64  1  0  0  0  0
 68 66  1  0  0  0  0
 69 68  1  0  0  0  0
 70 68  1  0  0  0  0
 71 72  1  0  0  0  0
 71 68  1  0  0  0  0
 73 71  2  0  0  0  0
 74 73  1  0  0  0  0
 75 78  1  0  0  0  0
 75 76  1  0  0  0  0
 75 73  1  0  0  0  0
 77 75  1  0  0  0  0
 78 79  1  0  0  0  0
 80 81  1  0  0  0  0
 80 78  2  0  0  0  0
 82 80  1  0  0  0  0
 83 82  1  0  0  0  0
 84 82  1  0  0  0  0
 85 82  1  0  0  0  0
 85 86  1  0  0  0  0
 87 85  2  0  0  0  0
 88 87  1  0  0  0  0
 89 90  1  0  0  0  0
 89 87  1  0  0  0  0
 91 89  1  0  0  0  0
 92 93  1  0  0  0  0
 92 89  1  0  0  0  0
 94 92  1  0  0  0  0
 95 97  1  0  0  0  0
 95 92  1  0  0  0  0
 96 95  1  0  0  0  0
 98 99  1  0  0  0  0
 98 95  1  0  0  0  0
100 98  1  0  0  0  0
101102  1  0  0  0  0
101 98  1  0  0  0  0
103101  1  0  0  0  0
104101  1  0  0  0  0
105107  1  0  0  0  0
105106  1  0  0  0  0
105 55  1  0  0  0  0
108105  1  0  0  0  0
109108  1  0  0  0  0
110108  1  0  0  0  0
111113  1  0  0  0  0
111108  1  0  0  0  0
112111  1  0  0  0  0
114111  1  0  0  0  0
115114  1  0  0  0  0
116114  1  0  0  0  0
117114  1  0  0  0  0
117119  1  0  0  0  0
117118  1  0  0  0  0
120121  1  0  0  0  0
120117  1  0  0  0  0
122120  1  0  0  0  0
123125  1  0  0  0  0
123124  1  0  0  0  0
123120  1  0  0  0  0
126123  1  0  0  0  0
127126  1  0  0  0  0
128126  1  0  0  0  0
129126  1  0  0  0  0
130129  1  0  0  0  0
131129  1  0  0  0  0
132135  1  0  0  0  0
132129  1  0  0  0  0
133132  1  0  0  0  0
134132  1  0  0  0  0
135136  1  0  0  0  0
137135  1  0  0  0  0
138135  1  0  0  0  0
139138  1  0  0  0  0
140138  1  0  0  0  0
141138  1  0  0  0  0
141143  1  0  0  0  0
141142  1  0  0  0  0
145144  1  0  0  0  0
146144  1  0  0  0  0
147144  1  0  0  0  0
147150  1  0  0  0  0
148147  1  0  0  0  0
149147  1  0  0  0  0
150153  1  0  0  0  0
151150  1  0  0  0  0
152150  1  0  0  0  0
M  END
