DNPG
 OpenBabel02161614153D

167166  0  0  1  0  0  0  0  0999 V2000
   15.2600   39.7200   62.8800 C   0  0  0  0  0  0  0  0  0  0  0  0
   16.1400   39.0700   62.7900 H   0  0  0  0  0  0  0  0  0  0  0  0
   15.6000   40.7700   63.0700 H   0  0  0  0  0  0  0  0  0  0  0  0
   14.6100   39.5700   61.6300 O   0  0  0  0  0  0  0  0  0  0  0  0
   15.0600   40.1300   60.9800 H   0  0  0  0  0  0  0  0  0  0  0  0
   14.4300   39.1800   64.0900 C   0  0  1  0  0  0  0  0  0  0  0  0
   14.1100   38.1500   63.8200 H   0  0  0  0  0  0  0  0  0  0  0  0
   15.2800   39.0300   65.2400 O   0  0  0  0  0  0  0  0  0  0  0  0
   14.7800   39.3600   66.0000 H   0  0  0  0  0  0  0  0  0  0  0  0
   13.1100   39.9800   64.3700 C   0  0  0  0  0  0  0  0  0  0  0  0
   12.6800   40.2500   63.3800 H   0  0  0  0  0  0  0  0  0  0  0  0
   13.3800   40.9200   64.9000 H   0  0  0  0  0  0  0  0  0  0  0  0
   10.7100   39.9500   65.3900 P   0  0  1  0  0  0  0  0  0  0  0  0
   10.2000   39.3100   66.6100 O   0  0  0  0  0  0  0  0  0  0  0  0
   10.9300   41.4200   65.3900 O   0  0  0  0  0  0  0  0  0  0  0  0
   12.1400   39.2100   65.1100 O   0  0  0  0  0  0  0  0  0  0  0  0
    9.7400   39.5500   64.2200 O   0  0  0  0  0  0  0  0  0  0  0  0
    9.3900   38.2300   63.8300 C   0  0  0  0  0  0  0  0  0  0  0  0
    8.4100   38.2800   63.3100 H   0  0  0  0  0  0  0  0  0  0  0  0
    9.2500   37.5700   64.7100 H   0  0  0  0  0  0  0  0  0  0  0  0
   10.4300   37.6400   62.8400 C   0  0  2  0  0  0  0  0  0  0  0  0
   11.4500   37.8900   63.2000 H   0  0  0  0  0  0  0  0  0  0  0  0
   10.2300   38.1400   61.5300 O   0  0  0  0  0  0  0  0  0  0  0  0
   10.4700   39.3800   61.2300 C   0  0  0  0  0  0  0  0  0  0  0  0
   10.8500   40.2900   61.9400 O   0  0  0  0  0  0  0  0  0  0  0  0
   10.1500   39.4900   59.7600 C   0  0  0  0  0  0  0  0  0  0  0  0
    9.0800   39.6700   59.7700 H   0  0  0  0  0  0  0  0  0  0  0  0
   10.2800   38.5100   59.2600 H   0  0  0  0  0  0  0  0  0  0  0  0
   10.3900   36.1000   62.6600 C   0  0  0  0  0  0  0  0  0  0  0  0
    9.4600   35.8400   62.1000 H   0  0  0  0  0  0  0  0  0  0  0  0
   10.3200   35.5900   63.6500 H   0  0  0  0  0  0  0  0  0  0  0  0
   11.5500   35.7100   61.9000 O   0  0  0  0  0  0  0  0  0  0  0  0
   12.5900   35.1900   62.5600 C   0  0  0  0  0  0  0  0  0  0  0  0
   12.5400   34.8100   63.7100 O   0  0  0  0  0  0  0  0  0  0  0  0
   13.8700   35.2200   61.6800 C   0  0  0  0  0  0  0  0  0  0  0  0
   14.1600   34.1800   61.4100 H   0  0  0  0  0  0  0  0  0  0  0  0
   14.7300   35.5300   62.2800 H   0  0  0  0  0  0  0  0  0  0  0  0
   10.9200   40.5900   59.0200 C   0  0  0  0  0  0  0  0  0  0  0  0
   10.9900   41.5100   59.6200 H   0  0  0  0  0  0  0  0  0  0  0  0
   10.3900   40.9100   58.1000 H   0  0  0  0  0  0  0  0  0  0  0  0
   12.2500   40.0400   58.5400 C   0  0  0  0  0  0  0  0  0  0  0  0
   12.1300   39.7900   57.4600 H   0  0  0  0  0  0  0  0  0  0  0  0
   12.4700   39.1000   59.0800 H   0  0  0  0  0  0  0  0  0  0  0  0
   13.4400   40.9700   58.7800 C   0  0  0  0  0  0  0  0  0  0  0  0
   14.3100   40.5100   58.2600 H   0  0  0  0  0  0  0  0  0  0  0  0
   13.6600   41.0400   59.8500 H   0  0  0  0  0  0  0  0  0  0  0  0
   13.2200   42.4000   58.2900 C   0  0  0  0  0  0  0  0  0  0  0  0
   14.1400   43.0300   58.3900 H   0  0  0  0  0  0  0  0  0  0  0  0
   12.3900   42.9300   58.8000 H   0  0  0  0  0  0  0  0  0  0  0  0
   12.8500   42.3000   56.8500 C   0  0  0  0  0  0  0  0  0  0  0  0
   11.8600   41.9100   56.7800 H   0  0  0  0  0  0  0  0  0  0  0  0
   13.3900   41.5900   56.3000 H   0  0  0  0  0  0  0  0  0  0  0  0
   13.1800   43.4500   56.0000 C   0  0  0  0  0  0  0  0  0  0  0  0
   14.2400   43.7100   55.8200 H   0  0  0  0  0  0  0  0  0  0  0  0
   12.9700   44.2000   56.7800 H   0  0  0  0  0  0  0  0  0  0  0  0
   12.3700   43.1700   54.6900 C   0  0  0  0  0  0  0  0  0  0  0  0
   11.5200   43.7900   54.7400 H   0  0  0  0  0  0  0  0  0  0  0  0
   11.5500   42.4700   54.7600 H   0  0  0  0  0  0  0  0  0  0  0  0
   13.1300   43.1300   53.3100 C   0  0  0  0  0  0  0  0  0  0  0  0
   12.8900   42.0400   53.1900 H   0  0  0  0  0  0  0  0  0  0  0  0
   14.1100   43.5200   53.5900 H   0  0  0  0  0  0  0  0  0  0  0  0
   13.0700   43.7300   51.8200 C   0  0  0  0  0  0  0  0  0  0  0  0
   13.1500   44.7900   51.5500 H   0  0  0  0  0  0  0  0  0  0  0  0
   12.1700   43.3300   51.4900 H   0  0  0  0  0  0  0  0  0  0  0  0
   13.4700   43.1100   50.4900 C   0  0  0  0  0  0  0  0  0  0  0  0
   14.4900   43.4800   50.5800 H   0  0  0  0  0  0  0  0  0  0  0  0
   13.1900   43.6900   49.5900 H   0  0  0  0  0  0  0  0  0  0  0  0
   12.8200   41.6800   50.3300 C   0  0  0  0  0  0  0  0  0  0  0  0
   12.1100   41.6600   49.4800 H   0  0  0  0  0  0  0  0  0  0  0  0
   12.2600   41.4100   51.2600 H   0  0  0  0  0  0  0  0  0  0  0  0
   13.7300   40.5800   50.0600 C   0  0  0  0  0  0  0  0  0  0  0  0
   13.6100   39.5200   50.2600 H   0  0  0  0  0  0  0  0  0  0  0  0
   14.3000   40.6900   50.9600 H   0  0  0  0  0  0  0  0  0  0  0  0
   14.2900   40.9700   48.7300 C   0  0  0  0  0  0  0  0  0  0  0  0
   14.5300   42.0400   48.6000 H   0  0  0  0  0  0  0  0  0  0  0  0
   14.5100   40.1500   47.7400 C   0  0  0  0  0  0  0  0  0  0  0  0
   15.1200   40.5000   46.9000 H   0  0  0  0  0  0  0  0  0  0  0  0
   14.1900   38.6900   47.8600 C   0  0  0  0  0  0  0  0  0  0  0  0
   13.7700   38.3900   48.8400 H   0  0  0  0  0  0  0  0  0  0  0  0
   15.0600   38.0500   47.6900 H   0  0  0  0  0  0  0  0  0  0  0  0
   13.0600   38.4400   46.8900 C   0  0  0  0  0  0  0  0  0  0  0  0
   12.2000   39.0800   47.1900 H   0  0  0  0  0  0  0  0  0  0  0  0
   12.7500   37.3800   47.0300 H   0  0  0  0  0  0  0  0  0  0  0  0
   13.4100   38.7600   45.4400 C   0  0  0  0  0  0  0  0  0  0  0  0
   13.6100   39.8600   45.3400 H   0  0  0  0  0  0  0  0  0  0  0  0
   12.5200   38.5400   44.8300 H   0  0  0  0  0  0  0  0  0  0  0  0
   14.5900   38.0000   44.8200 C   0  0  0  0  0  0  0  0  0  0  0  0
   14.3500   36.9200   44.7300 H   0  0  0  0  0  0  0  0  0  0  0  0
   15.4800   38.0600   45.4900 H   0  0  0  0  0  0  0  0  0  0  0  0
   14.8800   38.5600   43.4100 C   0  0  0  0  0  0  0  0  0  0  0  0
   13.9800   38.8500   42.8500 H   0  0  0  0  0  0  0  0  0  0  0  0
   15.5000   37.8500   42.8100 H   0  0  0  0  0  0  0  0  0  0  0  0
   15.7300   39.7900   43.5600 C   0  0  0  0  0  0  0  0  0  0  0  0
   16.4300   39.2700   44.2200 H   0  0  0  0  0  0  0  0  0  0  0  0
   15.2700   40.6100   44.1500 H   0  0  0  0  0  0  0  0  0  0  0  0
   16.4700   40.3400   42.3500 C   0  0  0  0  0  0  0  0  0  0  0  0
   16.8300   41.3300   42.6900 H   0  0  0  0  0  0  0  0  0  0  0  0
   15.7500   40.5700   41.5500 H   0  0  0  0  0  0  0  0  0  0  0  0
   17.6500   39.5800   41.7400 C   0  0  0  0  0  0  0  0  0  0  0  0
   17.7800   39.8200   40.6600 H   0  0  0  0  0  0  0  0  0  0  0  0
   18.5700   39.9200   42.2300 H   0  0  0  0  0  0  0  0  0  0  0  0
   17.6700   38.4900   41.9100 H   0  0  0  0  0  0  0  0  0  0  0  0
   13.6700   36.0700   60.4000 C   0  0  0  0  0  0  0  0  0  0  0  0
   13.6900   37.1300   60.7200 H   0  0  0  0  0  0  0  0  0  0  0  0
   12.7100   35.9500   59.8700 H   0  0  0  0  0  0  0  0  0  0  0  0
   14.7000   35.8600   59.3200 C   0  0  0  0  0  0  0  0  0  0  0  0
   14.6500   34.8900   58.7600 H   0  0  0  0  0  0  0  0  0  0  0  0
   15.6700   35.8100   59.8500 H   0  0  0  0  0  0  0  0  0  0  0  0
   14.5700   37.0600   58.3600 C   0  0  0  0  0  0  0  0  0  0  0  0
   15.5500   37.5300   58.1700 H   0  0  0  0  0  0  0  0  0  0  0  0
   14.1400   37.9200   58.9000 H   0  0  0  0  0  0  0  0  0  0  0  0
   13.8300   36.7700   57.0300 C   0  0  0  0  0  0  0  0  0  0  0  0
   12.7800   36.4800   57.2100 H   0  0  0  0  0  0  0  0  0  0  0  0
   14.3200   35.9200   56.4900 H   0  0  0  0  0  0  0  0  0  0  0  0
   13.8300   37.9700   56.0600 C   0  0  0  0  0  0  0  0  0  0  0  0
   14.7700   38.2400   55.6000 H   0  0  0  0  0  0  0  0  0  0  0  0
   13.6400   38.9100   56.6000 H   0  0  0  0  0  0  0  0  0  0  0  0
   13.1300   37.7400   54.7300 C   0  0  0  0  0  0  0  0  0  0  0  0
   13.2100   38.6700   54.1500 H   0  0  0  0  0  0  0  0  0  0  0  0
   12.0600   37.6300   54.9600 H   0  0  0  0  0  0  0  0  0  0  0  0
   13.6800   36.7100   53.7100 C   0  0  0  0  0  0  0  0  0  0  0  0
   13.3400   35.6900   53.9600 H   0  0  0  0  0  0  0  0  0  0  0  0
   14.7500   36.5500   53.6700 H   0  0  0  0  0  0  0  0  0  0  0  0
   13.3300   37.1700   52.3000 C   0  0  0  0  0  0  0  0  0  0  0  0
   13.7900   36.5400   51.5100 H   0  0  0  0  0  0  0  0  0  0  0  0
   13.7000   38.2100   52.1000 H   0  0  0  0  0  0  0  0  0  0  0  0
   11.8400   37.2700   52.1900 C   0  0  0  0  0  0  0  0  0  0  0  0
   11.4000   37.6600   53.1300 H   0  0  0  0  0  0  0  0  0  0  0  0
   11.4200   36.2600   52.0400 H   0  0  0  0  0  0  0  0  0  0  0  0
   11.4200   38.2900   51.1900 C   0  0  0  0  0  0  0  0  0  0  0  0
   11.4300   37.8000   50.1900 H   0  0  0  0  0  0  0  0  0  0  0  0
   12.0900   39.1500   51.1800 H   0  0  0  0  0  0  0  0  0  0  0  0
   10.1700   39.0300   51.6100 C   0  0  0  0  0  0  0  0  0  0  0  0
   10.3400   39.6800   52.4900 H   0  0  0  0  0  0  0  0  0  0  0  0
    9.4800   38.2700   52.0000 H   0  0  0  0  0  0  0  0  0  0  0  0
    9.7000   39.9200   50.4500 C   0  0  0  0  0  0  0  0  0  0  0  0
   10.3800   40.7700   50.2700 H   0  0  0  0  0  0  0  0  0  0  0  0
    8.7300   40.3600   50.7200 H   0  0  0  0  0  0  0  0  0  0  0  0
    9.5600   39.0700   49.2400 C   0  0  0  0  0  0  0  0  0  0  0  0
    9.5700   38.0000   49.4700 H   0  0  0  0  0  0  0  0  0  0  0  0
    9.5400   39.3600   47.9700 C   0  0  0  0  0  0  0  0  0  0  0  0
    9.0400   38.6300   47.2900 H   0  0  0  0  0  0  0  0  0  0  0  0
    9.8200   40.7700   47.5400 C   0  0  0  0  0  0  0  0  0  0  0  0
   10.6100   40.5100   46.8400 H   0  0  0  0  0  0  0  0  0  0  0  0
   10.2400   41.3600   48.3600 H   0  0  0  0  0  0  0  0  0  0  0  0
    8.7700   41.6700   46.8400 C   0  0  0  0  0  0  0  0  0  0  0  0
    7.8300   42.1000   47.1700 H   0  0  0  0  0  0  0  0  0  0  0  0
    8.4700   40.8100   46.3600 H   0  0  0  0  0  0  0  0  0  0  0  0
    9.0400   42.7900   45.8600 C   0  0  0  0  0  0  0  0  0  0  0  0
    9.1300   43.5600   46.5000 H   0  0  0  0  0  0  0  0  0  0  0  0
    8.1800   42.9500   45.1500 H   0  0  0  0  0  0  0  0  0  0  0  0
   10.3000   42.7500   45.1800 C   0  0  0  0  0  0  0  0  0  0  0  0
   11.0600   42.3900   45.9800 H   0  0  0  0  0  0  0  0  0  0  0  0
   10.7200   43.6000   44.6700 H   0  0  0  0  0  0  0  0  0  0  0  0
    9.6200   41.7400   44.2900 C   0  0  0  0  0  0  0  0  0  0  0  0
    9.6400   40.8500   44.9400 H   0  0  0  0  0  0  0  0  0  0  0  0
   10.6700   41.4100   44.5000 H   0  0  0  0  0  0  0  0  0  0  0  0
    8.9300   41.5900   42.5300 C   0  0  0  0  0  0  0  0  0  0  0  0
    8.9400   42.6500   42.3900 H   0  0  0  0  0  0  0  0  0  0  0  0
    7.8700   41.5100   42.3800 H   0  0  0  0  0  0  0  0  0  0  0  0
    9.3400   40.3800   41.0500 C   0  0  0  0  0  0  0  0  0  0  0  0
   10.2500   40.6700   40.5700 H   0  0  0  0  0  0  0  0  0  0  0  0
    8.7200   40.5600   40.1900 H   0  0  0  0  0  0  0  0  0  0  0  0
   10.1100   38.7900   40.8400 C   0  0  0  0  0  0  0  0  0  0  0  0
   10.5300   38.2800   39.9900 H   0  0  0  0  0  0  0  0  0  0  0  0
   11.0600   38.7200   41.4500 H   0  0  0  0  0  0  0  0  0  0  0  0
    9.5500   37.9700   41.3300 H   0  0  0  0  0  0  0  0  0  0  0  0
  1  3  1  0  0  0  0
  1  6  1  0  0  0  0
  2  1  1  0  0  0  0
  4  1  1  0  0  0  0
  5  4  1  0  0  0  0
  6  7  1  6  0  0  0
  6 10  1  0  0  0  0
  6  8  1  0  0  0  0
  8  9  1  0  0  0  0
 10 12  1  0  0  0  0
 10 16  1  0  0  0  0
 11 10  1  0  0  0  0
 13 17  1  6  0  0  0
 13 14  1  0  0  0  0
 15 13  2  0  0  0  0
 16 13  1  0  0  0  0
 18 17  1  0  0  0  0
 18 20  1  0  0  0  0
 19 18  1  0  0  0  0
 21 22  1  1  0  0  0
 21 18  1  0  0  0  0
 23 21  1  0  0  0  0
 24 23  1  0  0  0  0
 24 25  2  0  0  0  0
 26 27  1  0  0  0  0
 26 24  1  0  0  0  0
 28 26  1  0  0  0  0
 29 21  1  0  0  0  0
 29 31  1  0  0  0  0
 30 29  1  0  0  0  0
 32 33  1  0  0  0  0
 32 29  1  0  0  0  0
 33 34  2  0  0  0  0
 35 37  1  0  0  0  0
 35 33  1  0  0  0  0
 36 35  1  0  0  0  0
 38 39  1  0  0  0  0
 38 26  1  0  0  0  0
 40 38  1  0  0  0  0
 41 44  1  0  0  0  0
 41 38  1  0  0  0  0
 41 43  1  0  0  0  0
 42 41  1  0  0  0  0
 44 46  1  0  0  0  0
 45 44  1  0  0  0  0
 47 48  1  0  0  0  0
 47 44  1  0  0  0  0
 47 49  1  0  0  0  0
 50 47  1  0  0  0  0
 51 50  1  0  0  0  0
 52 50  1  0  0  0  0
 53 55  1  0  0  0  0
 53 50  1  0  0  0  0
 54 53  1  0  0  0  0
 56 57  1  0  0  0  0
 56 58  1  0  0  0  0
 56 53  1  0  0  0  0
 59 61  1  0  0  0  0
 59 56  1  0  0  0  0
 60 59  1  0  0  0  0
 62 59  1  0  0  0  0
 63 62  1  0  0  0  0
 64 62  1  0  0  0  0
 65 66  1  0  0  0  0
 65 62  1  0  0  0  0
 67 65  1  0  0  0  0
 68 65  1  0  0  0  0
 68 70  1  0  0  0  0
 69 68  1  0  0  0  0
 71 72  1  0  0  0  0
 71 68  1  0  0  0  0
 71 73  1  0  0  0  0
 74 71  1  0  0  0  0
 75 74  1  0  0  0  0
 76 78  1  0  0  0  0
 76 74  2  0  0  0  0
 77 76  1  0  0  0  0
 78 79  1  0  0  0  0
 80 78  1  0  0  0  0
 81 83  1  0  0  0  0
 81 82  1  0  0  0  0
 81 78  1  0  0  0  0
 84 81  1  0  0  0  0
 85 84  1  0  0  0  0
 86 84  1  0  0  0  0
 87 84  1  0  0  0  0
 87 89  1  0  0  0  0
 88 87  1  0  0  0  0
 90 93  1  0  0  0  0
 90 87  1  0  0  0  0
 91 90  1  0  0  0  0
 92 90  1  0  0  0  0
 93 95  1  0  0  0  0
 93 94  1  0  0  0  0
 96 97  1  0  0  0  0
 96 93  1  0  0  0  0
 98 96  1  0  0  0  0
 99102  1  0  0  0  0
 99101  1  0  0  0  0
 99 96  1  0  0  0  0
100 99  1  0  0  0  0
103104  1  0  0  0  0
103 35  1  0  0  0  0
105103  1  0  0  0  0
106108  1  0  0  0  0
106103  1  0  0  0  0
107106  1  0  0  0  0
109111  1  0  0  0  0
109106  1  0  0  0  0
110109  1  0  0  0  0
112113  1  0  0  0  0
112109  1  0  0  0  0
114112  1  0  0  0  0
115117  1  0  0  0  0
115112  1  0  0  0  0
116115  1  0  0  0  0
118120  1  0  0  0  0
118115  1  0  0  0  0
119118  1  0  0  0  0
121122  1  0  0  0  0
121118  1  0  0  0  0
123121  1  0  0  0  0
124121  1  0  0  0  0
125124  1  0  0  0  0
126124  1  0  0  0  0
127124  1  0  0  0  0
127128  1  0  0  0  0
129127  1  0  0  0  0
130133  1  0  0  0  0
130127  1  0  0  0  0
131130  1  0  0  0  0
132130  1  0  0  0  0
133135  1  0  0  0  0
133134  1  0  0  0  0
136138  1  0  0  0  0
136133  1  0  0  0  0
137136  1  0  0  0  0
139140  1  0  0  0  0
139136  1  0  0  0  0
141139  1  0  0  0  0
142141  1  0  0  0  0
143141  1  0  0  0  0
143145  1  0  0  0  0
144143  1  0  0  0  0
146147  1  0  0  0  0
146143  1  0  0  0  0
148146  1  0  0  0  0
149150  1  0  0  0  0
149146  1  0  0  0  0
151149  1  0  0  0  0
152149  1  0  0  0  0
152153  1  0  0  0  0
154152  1  0  0  0  0
155157  1  0  0  0  0
155156  1  0  0  0  0
155152  1  0  0  0  0
158155  1  0  0  0  0
159158  1  0  0  0  0
160158  1  0  0  0  0
161158  1  0  0  0  0
162161  1  0  0  0  0
163161  1  0  0  0  0
164161  1  0  0  0  0
164167  1  0  0  0  0
164166  1  0  0  0  0
165164  1  0  0  0  0
M  END
