POPI24
 OpenBabel02161614153D

144144  0  0  1  0  0  0  0  0999 V2000
   47.5600   44.9100   62.6100 C   0  0  2  0  0  0  0  0  0  0  0  0
   48.4300   45.2200   62.0200 H   0  0  0  0  0  0  0  0  0  0  0  0
   47.3000   43.5400   62.2800 O   0  0  0  0  0  0  0  0  0  0  0  0
   46.8000   43.1000   62.9600 H   0  0  0  0  0  0  0  0  0  0  0  0
   47.9200   45.1200   64.0900 C   0  0  2  0  0  0  0  0  0  0  0  0
   48.1600   46.1800   64.3100 H   0  0  0  0  0  0  0  0  0  0  0  0
   49.0400   44.3100   64.4400 O   0  0  0  0  0  0  0  0  0  0  0  0
   49.8300   44.8600   64.3800 H   0  0  0  0  0  0  0  0  0  0  0  0
   46.7300   44.8300   64.9700 C   0  0  1  0  0  0  0  0  0  0  0  0
   46.5000   43.7500   64.8600 H   0  0  0  0  0  0  0  0  0  0  0  0
   47.0800   45.1700   66.3200 O   0  0  0  0  0  0  0  0  0  0  0  0
   46.9900   44.0800   67.5300 P   0  0  1  0  0  0  0  0  0  0  0  0
   48.3400   43.3300   67.2600 O   0  0  0  0  0  0  0  0  0  0  0  0
   48.6300   42.6800   67.9000 H   0  0  0  0  0  0  0  0  0  0  0  0
   47.1200   44.8300   68.8900 O   0  0  0  0  0  0  0  0  0  0  0  0
   45.8900   43.0200   67.4100 O   0  0  0  0  0  0  0  0  0  0  0  0
   45.5900   45.7500   64.4800 C   0  0  2  0  0  0  0  0  0  0  0  0
   45.7900   46.8100   64.7000 H   0  0  0  0  0  0  0  0  0  0  0  0
   44.5600   45.3500   65.3300 O   0  0  0  0  0  0  0  0  0  0  0  0
   43.5900   46.0700   66.3600 P   0  0  0  0  0  0  0  0  0  0  0  0
   43.0000   44.7900   66.9000 O   0  0  0  0  0  0  0  0  0  0  0  0
   44.4300   46.6600   67.4900 O   0  0  0  0  0  0  0  0  0  0  0  0
   42.8400   47.0300   65.4400 O   0  0  0  0  0  0  0  0  0  0  0  0
   45.2400   45.6100   62.9700 C   0  0  1  0  0  0  0  0  0  0  0  0
   44.8900   44.6600   62.5600 H   0  0  0  0  0  0  0  0  0  0  0  0
   44.1400   46.4300   62.6200 O   0  0  0  0  0  0  0  0  0  0  0  0
   44.2000   46.6400   61.7000 H   0  0  0  0  0  0  0  0  0  0  0  0
   46.4600   45.8600   62.1600 C   0  0  2  0  0  0  0  0  0  0  0  0
   46.8400   46.8900   62.3700 H   0  0  0  0  0  0  0  0  0  0  0  0
   46.6600   46.6900   59.6100 P   0  0  2  0  0  0  0  0  0  0  0  0
   48.1400   46.7100   59.5200 O   0  0  0  0  0  0  0  0  0  0  0  0
   45.9400   47.9400   59.8400 O   0  0  0  0  0  0  0  0  0  0  0  0
   46.1500   45.6200   60.7600 O   0  0  0  0  0  0  0  0  0  0  0  0
   46.0400   46.1400   58.2800 O   0  0  0  0  0  0  0  0  0  0  0  0
   44.6500   46.2300   57.9200 C   0  0  0  0  0  0  0  0  0  0  0  0
   44.3800   47.2300   57.5300 H   0  0  0  0  0  0  0  0  0  0  0  0
   44.0300   45.9900   58.8000 H   0  0  0  0  0  0  0  0  0  0  0  0
   44.2900   45.2100   56.8200 C   0  0  2  0  0  0  0  0  0  0  0  0
   43.4400   44.5900   57.2100 H   0  0  0  0  0  0  0  0  0  0  0  0
   45.4900   44.5000   56.6100 O   0  0  0  0  0  0  0  0  0  0  0  0
   45.2900   43.3800   56.1300 C   0  0  0  0  0  0  0  0  0  0  0  0
   44.1800   42.8500   55.9800 O   0  0  0  0  0  0  0  0  0  0  0  0
   46.7000   42.9500   55.7200 C   0  0  0  0  0  0  0  0  0  0  0  0
   46.8500   42.0500   56.3600 H   0  0  0  0  0  0  0  0  0  0  0  0
   47.5700   43.4700   56.1100 H   0  0  0  0  0  0  0  0  0  0  0  0
   43.8400   45.8500   55.4800 C   0  0  0  0  0  0  0  0  0  0  0  0
   43.6100   45.0600   54.7200 H   0  0  0  0  0  0  0  0  0  0  0  0
   42.8800   46.3500   55.7200 H   0  0  0  0  0  0  0  0  0  0  0  0
   44.8300   46.8000   55.0500 O   0  0  0  0  0  0  0  0  0  0  0  0
   45.4100   46.6000   53.8800 C   0  0  0  0  0  0  0  0  0  0  0  0
   45.1300   45.7300   53.0700 O   0  0  0  0  0  0  0  0  0  0  0  0
   46.4700   47.6800   53.6900 C   0  0  0  0  0  0  0  0  0  0  0  0
   47.4100   47.3500   54.1900 H   0  0  0  0  0  0  0  0  0  0  0  0
   46.1000   48.6000   54.1800 H   0  0  0  0  0  0  0  0  0  0  0  0
   46.9100   42.9400   54.1700 C   0  0  0  0  0  0  0  0  0  0  0  0
   46.5500   43.8000   53.5800 H   0  0  0  0  0  0  0  0  0  0  0  0
   45.9800   42.3900   54.0000 H   0  0  0  0  0  0  0  0  0  0  0  0
   48.3000   42.3300   53.6300 C   0  0  0  0  0  0  0  0  0  0  0  0
   48.5600   41.2500   53.7600 H   0  0  0  0  0  0  0  0  0  0  0  0
   49.1300   42.6700   54.2400 H   0  0  0  0  0  0  0  0  0  0  0  0
   48.5500   42.3000   52.1400 C   0  0  0  0  0  0  0  0  0  0  0  0
   47.7500   41.8000   51.7200 H   0  0  0  0  0  0  0  0  0  0  0  0
   49.3400   41.5700   51.8200 H   0  0  0  0  0  0  0  0  0  0  0  0
   48.4200   43.6800   51.5500 C   0  0  0  0  0  0  0  0  0  0  0  0
   49.0700   44.1500   52.3200 H   0  0  0  0  0  0  0  0  0  0  0  0
   47.4200   44.1000   51.7300 H   0  0  0  0  0  0  0  0  0  0  0  0
   48.8800   43.9300   50.0900 C   0  0  0  0  0  0  0  0  0  0  0  0
   48.2700   43.5100   49.2900 H   0  0  0  0  0  0  0  0  0  0  0  0
   49.7900   43.4500   49.7600 H   0  0  0  0  0  0  0  0  0  0  0  0
   49.3300   45.3600   50.0000 C   0  0  0  0  0  0  0  0  0  0  0  0
   49.9700   45.6500   50.8500 H   0  0  0  0  0  0  0  0  0  0  0  0
   48.4100   45.9400   50.2000 H   0  0  0  0  0  0  0  0  0  0  0  0
   50.0800   45.5600   48.7000 C   0  0  0  0  0  0  0  0  0  0  0  0
   50.9200   44.8700   48.4900 H   0  0  0  0  0  0  0  0  0  0  0  0
   49.7700   46.4800   47.8100 C   0  0  0  0  0  0  0  0  0  0  0  0
   50.4300   46.6200   46.9400 H   0  0  0  0  0  0  0  0  0  0  0  0
   48.6100   47.4200   48.0000 C   0  0  0  0  0  0  0  0  0  0  0  0
   48.8300   48.4000   47.5400 H   0  0  0  0  0  0  0  0  0  0  0  0
   48.3900   47.6000   49.0800 H   0  0  0  0  0  0  0  0  0  0  0  0
   47.3300   46.8600   47.3600 C   0  0  0  0  0  0  0  0  0  0  0  0
   46.6200   47.7100   47.2800 H   0  0  0  0  0  0  0  0  0  0  0  0
   46.8700   46.0800   48.0100 H   0  0  0  0  0  0  0  0  0  0  0  0
   47.5600   46.2300   45.9800 C   0  0  0  0  0  0  0  0  0  0  0  0
   48.0700   45.2500   46.1300 H   0  0  0  0  0  0  0  0  0  0  0  0
   48.2300   46.9200   45.4100 H   0  0  0  0  0  0  0  0  0  0  0  0
   46.2800   46.0200   45.1800 C   0  0  0  0  0  0  0  0  0  0  0  0
   45.8500   47.0000   44.8900 H   0  0  0  0  0  0  0  0  0  0  0  0
   45.5600   45.4700   45.8200 H   0  0  0  0  0  0  0  0  0  0  0  0
   46.4500   45.2000   43.9000 C   0  0  0  0  0  0  0  0  0  0  0  0
   45.4500   44.8900   43.5300 H   0  0  0  0  0  0  0  0  0  0  0  0
   46.9700   44.2500   44.1800 H   0  0  0  0  0  0  0  0  0  0  0  0
   47.0300   46.0400   42.7400 C   0  0  0  0  0  0  0  0  0  0  0  0
   46.8000   47.1000   42.7800 H   0  0  0  0  0  0  0  0  0  0  0  0
   46.6300   45.6100   41.7800 H   0  0  0  0  0  0  0  0  0  0  0  0
   48.5000   45.9900   42.6900 C   0  0  0  0  0  0  0  0  0  0  0  0
   49.0400   45.9000   43.6700 H   0  0  0  0  0  0  0  0  0  0  0  0
   49.1100   46.5700   41.9500 H   0  0  0  0  0  0  0  0  0  0  0  0
   48.5300   44.7200   42.0500 C   0  0  0  0  0  0  0  0  0  0  0  0
   48.4400   44.6200   40.9600 H   0  0  0  0  0  0  0  0  0  0  0  0
   49.5900   44.6600   42.2200 H   0  0  0  0  0  0  0  0  0  0  0  0
   47.9800   43.8900   42.5600 H   0  0  0  0  0  0  0  0  0  0  0  0
   46.7200   47.8900   52.1900 C   0  0  0  0  0  0  0  0  0  0  0  0
   46.9800   46.9100   51.7200 H   0  0  0  0  0  0  0  0  0  0  0  0
   47.6000   48.5500   52.0400 H   0  0  0  0  0  0  0  0  0  0  0  0
   45.5100   48.4300   51.4400 C   0  0  0  0  0  0  0  0  0  0  0  0
   45.3700   49.5200   51.5900 H   0  0  0  0  0  0  0  0  0  0  0  0
   44.5700   47.9200   51.7400 H   0  0  0  0  0  0  0  0  0  0  0  0
   45.6700   48.1200   49.9600 C   0  0  0  0  0  0  0  0  0  0  0  0
   45.9600   47.0400   49.8500 H   0  0  0  0  0  0  0  0  0  0  0  0
   46.5000   48.7600   49.5900 H   0  0  0  0  0  0  0  0  0  0  0  0
   44.4000   48.3700   49.1400 C   0  0  0  0  0  0  0  0  0  0  0  0
   44.6300   48.1800   48.0700 H   0  0  0  0  0  0  0  0  0  0  0  0
   44.1500   49.4500   49.2500 H   0  0  0  0  0  0  0  0  0  0  0  0
   43.1700   47.5200   49.5200 C   0  0  0  0  0  0  0  0  0  0  0  0
   42.3800   47.7900   48.7900 H   0  0  0  0  0  0  0  0  0  0  0  0
   42.7900   47.8500   50.5000 H   0  0  0  0  0  0  0  0  0  0  0  0
   43.3800   45.9900   49.6000 C   0  0  0  0  0  0  0  0  0  0  0  0
   42.4000   45.5100   49.8500 H   0  0  0  0  0  0  0  0  0  0  0  0
   44.0500   45.8000   50.4700 H   0  0  0  0  0  0  0  0  0  0  0  0
   43.9300   45.2900   48.3500 C   0  0  0  0  0  0  0  0  0  0  0  0
   44.3000   44.2700   48.6300 H   0  0  0  0  0  0  0  0  0  0  0  0
   44.8100   45.8400   47.9800 H   0  0  0  0  0  0  0  0  0  0  0  0
   42.9300   45.0800   47.1900 C   0  0  0  0  0  0  0  0  0  0  0  0
   42.0200   44.5600   47.5700 H   0  0  0  0  0  0  0  0  0  0  0  0
   43.4200   44.3900   46.4700 H   0  0  0  0  0  0  0  0  0  0  0  0
   42.5100   46.3500   46.4100 C   0  0  0  0  0  0  0  0  0  0  0  0
   43.3700   47.0300   46.2500 H   0  0  0  0  0  0  0  0  0  0  0  0
   41.7600   46.9100   47.0000 H   0  0  0  0  0  0  0  0  0  0  0  0
   41.8500   46.0000   45.0700 C   0  0  0  0  0  0  0  0  0  0  0  0
   41.2200   46.8400   44.7000 H   0  0  0  0  0  0  0  0  0  0  0  0
   41.1500   45.1500   45.2500 H   0  0  0  0  0  0  0  0  0  0  0  0
   42.7900   45.5800   43.9300 C   0  0  0  0  0  0  0  0  0  0  0  0
   43.2300   44.5900   44.2000 H   0  0  0  0  0  0  0  0  0  0  0  0
   43.6500   46.2500   43.7200 H   0  0  0  0  0  0  0  0  0  0  0  0
   41.9700   45.4400   42.6500 C   0  0  0  0  0  0  0  0  0  0  0  0
   41.8300   46.4100   42.1200 H   0  0  0  0  0  0  0  0  0  0  0  0
   40.9400   45.1000   42.9400 H   0  0  0  0  0  0  0  0  0  0  0  0
   42.5600   44.4100   41.7000 C   0  0  0  0  0  0  0  0  0  0  0  0
   43.2400   43.7200   42.2400 H   0  0  0  0  0  0  0  0  0  0  0  0
   43.1700   44.9600   40.9400 H   0  0  0  0  0  0  0  0  0  0  0  0
   41.4700   43.5600   41.1000 C   0  0  0  0  0  0  0  0  0  0  0  0
   41.1300   42.7400   41.7500 H   0  0  0  0  0  0  0  0  0  0  0  0
   40.5700   44.2100   40.9500 H   0  0  0  0  0  0  0  0  0  0  0  0
   41.8100   43.1400   40.1300 H   0  0  0  0  0  0  0  0  0  0  0  0
  1  2  1  6  0  0  0
  1  5  1  0  0  0  0
  3  1  1  0  0  0  0
  3  4  1  0  0  0  0
  5  6  1  1  0  0  0
  5  7  1  0  0  0  0
  5  9  1  0  0  0  0
  8  7  1  0  0  0  0
  9 10  1  6  0  0  0
  9 11  1  0  0  0  0
 12 11  1  6  0  0  0
 12 15  1  0  0  0  0
 13 12  1  0  0  0  0
 13 14  1  0  0  0  0
 16 12  2  0  0  0  0
 17 18  1  1  0  0  0
 17  9  1  0  0  0  0
 17 19  1  0  0  0  0
 19 20  1  0  0  0  0
 20 21  1  0  0  0  0
 20 22  1  0  0  0  0
 23 20  2  0  0  0  0
 24 25  1  6  0  0  0
 24 17  1  0  0  0  0
 26 24  1  0  0  0  0
 27 26  1  0  0  0  0
 28 29  1  1  0  0  0
 28  1  1  0  0  0  0
 28 24  1  0  0  0  0
 30 34  1  6  0  0  0
 30 32  1  0  0  0  0
 30 33  1  0  0  0  0
 31 30  2  0  0  0  0
 33 28  1  0  0  0  0
 35 34  1  0  0  0  0
 35 37  1  0  0  0  0
 36 35  1  0  0  0  0
 38 39  1  1  0  0  0
 38 35  1  0  0  0  0
 40 38  1  0  0  0  0
 41 40  1  0  0  0  0
 42 41  2  0  0  0  0
 43 45  1  0  0  0  0
 43 41  1  0  0  0  0
 43 44  1  0  0  0  0
 46 48  1  0  0  0  0
 46 38  1  0  0  0  0
 47 46  1  0  0  0  0
 49 46  1  0  0  0  0
 50 49  1  0  0  0  0
 51 50  2  0  0  0  0
 52 50  1  0  0  0  0
 52 54  1  0  0  0  0
 52 53  1  0  0  0  0
 55 43  1  0  0  0  0
 56 55  1  0  0  0  0
 57 55  1  0  0  0  0
 58 59  1  0  0  0  0
 58 55  1  0  0  0  0
 58 60  1  0  0  0  0
 61 58  1  0  0  0  0
 62 61  1  0  0  0  0
 63 61  1  0  0  0  0
 64 66  1  0  0  0  0
 64 61  1  0  0  0  0
 64 65  1  0  0  0  0
 67 64  1  0  0  0  0
 68 67  1  0  0  0  0
 69 67  1  0  0  0  0
 70 67  1  0  0  0  0
 70 72  1  0  0  0  0
 70 71  1  0  0  0  0
 73 70  1  0  0  0  0
 74 73  1  0  0  0  0
 75 77  1  0  0  0  0
 75 73  2  0  0  0  0
 76 75  1  0  0  0  0
 77 79  1  0  0  0  0
 78 77  1  0  0  0  0
 80 77  1  0  0  0  0
 80 82  1  0  0  0  0
 81 80  1  0  0  0  0
 83 84  1  0  0  0  0
 83 80  1  0  0  0  0
 85 83  1  0  0  0  0
 86 88  1  0  0  0  0
 86 83  1  0  0  0  0
 87 86  1  0  0  0  0
 89 91  1  0  0  0  0
 89 86  1  0  0  0  0
 90 89  1  0  0  0  0
 92 93  1  0  0  0  0
 92 89  1  0  0  0  0
 94 92  1  0  0  0  0
 95 92  1  0  0  0  0
 95 96  1  0  0  0  0
 97 95  1  0  0  0  0
 98100  1  0  0  0  0
 98101  1  0  0  0  0
 98 95  1  0  0  0  0
 99 98  1  0  0  0  0
102 52  1  0  0  0  0
103102  1  0  0  0  0
104102  1  0  0  0  0
105106  1  0  0  0  0
105107  1  0  0  0  0
105102  1  0  0  0  0
108105  1  0  0  0  0
109108  1  0  0  0  0
110108  1  0  0  0  0
111113  1  0  0  0  0
111114  1  0  0  0  0
111108  1  0  0  0  0
112111  1  0  0  0  0
114117  1  0  0  0  0
114116  1  0  0  0  0
115114  1  0  0  0  0
117118  1  0  0  0  0
117119  1  0  0  0  0
120121  1  0  0  0  0
120117  1  0  0  0  0
122120  1  0  0  0  0
123124  1  0  0  0  0
123120  1  0  0  0  0
125123  1  0  0  0  0
126128  1  0  0  0  0
126123  1  0  0  0  0
127126  1  0  0  0  0
129131  1  0  0  0  0
129126  1  0  0  0  0
130129  1  0  0  0  0
132133  1  0  0  0  0
132129  1  0  0  0  0
134132  1  0  0  0  0
135137  1  0  0  0  0
135132  1  0  0  0  0
136135  1  0  0  0  0
138139  1  0  0  0  0
138135  1  0  0  0  0
140138  1  0  0  0  0
141138  1  0  0  0  0
141142  1  0  0  0  0
143141  1  0  0  0  0
144141  1  0  0  0  0
M  END
