DNPS
 OpenBabel02161614153D

167166  0  0  1  0  0  0  0  0999 V2000
   24.9200   25.1000   65.9600 N   0  0  0  0  0  0  0  0  0  0  0  0
   25.5700   25.8700   65.7300 H   0  0  0  0  0  0  0  0  0  0  0  0
   24.1000   25.0700   65.3000 H   0  0  0  0  0  0  0  0  0  0  0  0
   24.5600   25.1400   66.9400 H   0  0  0  0  0  0  0  0  0  0  0  0
   25.5900   23.8100   65.5900 C   0  0  1  0  0  0  0  0  0  0  0  0
   25.6500   23.1800   66.4700 H   0  0  0  0  0  0  0  0  0  0  0  0
   24.6900   23.0200   64.5900 C   0  0  0  0  0  0  0  0  0  0  0  0
   23.5500   23.5600   64.4100 O   0  0  0  0  0  0  0  0  0  0  0  0
   24.8200   21.7700   64.6100 O   0  0  0  0  0  0  0  0  0  0  0  0
   27.0200   24.1100   65.0400 C   0  0  0  0  0  0  0  0  0  0  0  0
   27.4700   24.9100   65.6800 H   0  0  0  0  0  0  0  0  0  0  0  0
   26.9400   24.5200   64.0000 H   0  0  0  0  0  0  0  0  0  0  0  0
   28.7300   22.4400   63.9200 P   0  0  1  0  0  0  0  0  0  0  0  0
   29.5800   23.6000   63.5600 O   0  0  0  0  0  0  0  0  0  0  0  0
   29.3800   21.1600   64.2500 O   0  0  0  0  0  0  0  0  0  0  0  0
   27.8600   22.9600   65.1500 O   0  0  0  0  0  0  0  0  0  0  0  0
   27.6100   22.2200   62.8300 O   0  0  0  0  0  0  0  0  0  0  0  0
   27.9200   21.6900   61.5400 C   0  0  0  0  0  0  0  0  0  0  0  0
   26.9900   21.2100   61.1600 H   0  0  0  0  0  0  0  0  0  0  0  0
   28.7000   20.9000   61.6000 H   0  0  0  0  0  0  0  0  0  0  0  0
   28.3500   22.7900   60.5200 C   0  0  2  0  0  0  0  0  0  0  0  0
   29.4400   22.9700   60.7200 H   0  0  0  0  0  0  0  0  0  0  0  0
   27.5600   23.9800   60.7200 O   0  0  0  0  0  0  0  0  0  0  0  0
   28.1400   25.1300   60.4300 C   0  0  0  0  0  0  0  0  0  0  0  0
   29.1900   25.3000   59.8600 O   0  0  0  0  0  0  0  0  0  0  0  0
   27.1800   26.2400   60.8900 C   0  0  0  0  0  0  0  0  0  0  0  0
   27.5800   27.2000   60.5000 H   0  0  0  0  0  0  0  0  0  0  0  0
   27.2200   26.3000   62.0000 H   0  0  0  0  0  0  0  0  0  0  0  0
   28.1900   22.2800   59.0600 C   0  0  0  0  0  0  0  0  0  0  0  0
   28.7200   22.9700   58.3600 H   0  0  0  0  0  0  0  0  0  0  0  0
   27.1200   22.3300   58.8000 H   0  0  0  0  0  0  0  0  0  0  0  0
   28.5900   20.9000   58.9500 O   0  0  0  0  0  0  0  0  0  0  0  0
   29.6100   20.6300   58.1500 C   0  0  0  0  0  0  0  0  0  0  0  0
   30.2800   21.4400   57.5300 O   0  0  0  0  0  0  0  0  0  0  0  0
   29.7200   19.1400   57.9800 C   0  0  0  0  0  0  0  0  0  0  0  0
   29.8600   18.6900   58.9900 H   0  0  0  0  0  0  0  0  0  0  0  0
   30.6100   18.8700   57.3800 H   0  0  0  0  0  0  0  0  0  0  0  0
   25.7100   26.0300   60.4200 C   0  0  0  0  0  0  0  0  0  0  0  0
   25.0600   25.8900   61.3100 H   0  0  0  0  0  0  0  0  0  0  0  0
   25.6000   25.1100   59.8100 H   0  0  0  0  0  0  0  0  0  0  0  0
   25.1800   27.2200   59.6200 C   0  0  0  0  0  0  0  0  0  0  0  0
   25.1600   28.1100   60.2900 H   0  0  0  0  0  0  0  0  0  0  0  0
   24.1300   27.0200   59.2900 H   0  0  0  0  0  0  0  0  0  0  0  0
   26.0100   27.6000   58.3700 C   0  0  0  0  0  0  0  0  0  0  0  0
   26.9700   28.0600   58.7000 H   0  0  0  0  0  0  0  0  0  0  0  0
   25.4600   28.3900   57.8200 H   0  0  0  0  0  0  0  0  0  0  0  0
   26.3700   26.4600   57.3900 C   0  0  0  0  0  0  0  0  0  0  0  0
   27.1100   25.7700   57.8500 H   0  0  0  0  0  0  0  0  0  0  0  0
   26.8500   26.9300   56.5000 H   0  0  0  0  0  0  0  0  0  0  0  0
   25.1700   25.6500   56.8700 C   0  0  0  0  0  0  0  0  0  0  0  0
   24.6200   26.3800   56.2500 H   0  0  0  0  0  0  0  0  0  0  0  0
   24.5100   25.3600   57.7200 H   0  0  0  0  0  0  0  0  0  0  0  0
   25.4800   24.3800   56.0300 C   0  0  0  0  0  0  0  0  0  0  0  0
   24.6200   23.8300   55.6200 H   0  0  0  0  0  0  0  0  0  0  0  0
   25.9300   23.6100   56.6900 H   0  0  0  0  0  0  0  0  0  0  0  0
   26.2200   24.6300   54.7200 C   0  0  0  0  0  0  0  0  0  0  0  0
   25.9800   25.6300   54.2900 H   0  0  0  0  0  0  0  0  0  0  0  0
   25.8600   23.8700   53.9800 H   0  0  0  0  0  0  0  0  0  0  0  0
   27.7000   24.4000   54.9800 C   0  0  0  0  0  0  0  0  0  0  0  0
   27.7800   23.8500   55.9500 H   0  0  0  0  0  0  0  0  0  0  0  0
   28.2200   25.3700   55.1100 H   0  0  0  0  0  0  0  0  0  0  0  0
   28.3600   23.4900   53.9400 C   0  0  0  0  0  0  0  0  0  0  0  0
   27.7000   22.6200   53.7300 H   0  0  0  0  0  0  0  0  0  0  0  0
   29.2900   23.1000   54.4000 H   0  0  0  0  0  0  0  0  0  0  0  0
   28.7200   24.2400   52.6600 C   0  0  0  0  0  0  0  0  0  0  0  0
   29.1500   25.2300   52.9500 H   0  0  0  0  0  0  0  0  0  0  0  0
   27.8000   24.4400   52.0700 H   0  0  0  0  0  0  0  0  0  0  0  0
   29.7500   23.4500   51.8300 C   0  0  0  0  0  0  0  0  0  0  0  0
   30.6200   23.2100   52.4800 H   0  0  0  0  0  0  0  0  0  0  0  0
   30.1200   24.0900   50.9900 H   0  0  0  0  0  0  0  0  0  0  0  0
   29.1300   22.1500   51.2700 C   0  0  0  0  0  0  0  0  0  0  0  0
   28.2100   22.4500   50.7200 H   0  0  0  0  0  0  0  0  0  0  0  0
   28.8200   21.5200   52.1300 H   0  0  0  0  0  0  0  0  0  0  0  0
   30.0400   21.3500   50.3800 C   0  0  0  0  0  0  0  0  0  0  0  0
   30.8000   20.7500   50.9100 H   0  0  0  0  0  0  0  0  0  0  0  0
   29.9400   21.2200   49.0400 C   0  0  0  0  0  0  0  0  0  0  0  0
   30.7400   20.7000   48.5100 H   0  0  0  0  0  0  0  0  0  0  0  0
   28.8900   21.8400   48.1500 C   0  0  0  0  0  0  0  0  0  0  0  0
   28.8300   22.9300   48.4000 H   0  0  0  0  0  0  0  0  0  0  0  0
   27.9200   21.4100   48.3600 H   0  0  0  0  0  0  0  0  0  0  0  0
   29.1100   21.7000   46.6100 C   0  0  0  0  0  0  0  0  0  0  0  0
   30.1700   21.7900   46.3700 H   0  0  0  0  0  0  0  0  0  0  0  0
   28.5900   22.4900   46.0600 H   0  0  0  0  0  0  0  0  0  0  0  0
   29.0700   20.3600   45.9400 C   0  0  0  0  0  0  0  0  0  0  0  0
   28.0500   19.9600   45.9300 H   0  0  0  0  0  0  0  0  0  0  0  0
   29.6900   19.7700   46.6300 H   0  0  0  0  0  0  0  0  0  0  0  0
   29.7300   20.3600   44.5400 C   0  0  0  0  0  0  0  0  0  0  0  0
   29.8800   19.3000   44.2500 H   0  0  0  0  0  0  0  0  0  0  0  0
   30.7500   20.8000   44.5300 H   0  0  0  0  0  0  0  0  0  0  0  0
   28.9000   21.0900   43.4800 C   0  0  0  0  0  0  0  0  0  0  0  0
   28.7900   22.1600   43.7500 H   0  0  0  0  0  0  0  0  0  0  0  0
   27.8800   20.6400   43.4700 H   0  0  0  0  0  0  0  0  0  0  0  0
   29.5500   20.9800   42.0900 C   0  0  0  0  0  0  0  0  0  0  0  0
   29.6200   19.9100   41.8200 H   0  0  0  0  0  0  0  0  0  0  0  0
   30.5800   21.3800   42.1500 H   0  0  0  0  0  0  0  0  0  0  0  0
   28.8200   21.7300   40.9500 C   0  0  0  0  0  0  0  0  0  0  0  0
   27.7500   21.4400   40.9300 H   0  0  0  0  0  0  0  0  0  0  0  0
   29.2700   21.4000   39.9800 H   0  0  0  0  0  0  0  0  0  0  0  0
   28.9400   23.2500   41.0300 C   0  0  0  0  0  0  0  0  0  0  0  0
   29.9900   23.5600   41.1800 H   0  0  0  0  0  0  0  0  0  0  0  0
   28.5700   23.7300   40.1100 H   0  0  0  0  0  0  0  0  0  0  0  0
   28.3300   23.6400   41.8800 H   0  0  0  0  0  0  0  0  0  0  0  0
   28.4300   18.6200   57.3200 C   0  0  0  0  0  0  0  0  0  0  0  0
   27.5600   18.8600   57.9700 H   0  0  0  0  0  0  0  0  0  0  0  0
   28.5300   17.5100   57.3200 H   0  0  0  0  0  0  0  0  0  0  0  0
   28.2000   19.1100   55.8600 C   0  0  0  0  0  0  0  0  0  0  0  0
   28.9400   18.5700   55.2200 H   0  0  0  0  0  0  0  0  0  0  0  0
   28.3200   20.2100   55.7500 H   0  0  0  0  0  0  0  0  0  0  0  0
   26.8000   18.6900   55.3900 C   0  0  0  0  0  0  0  0  0  0  0  0
   25.9700   19.2300   55.9000 H   0  0  0  0  0  0  0  0  0  0  0  0
   26.9900   17.6800   55.7400 H   0  0  0  0  0  0  0  0  0  0  0  0
   26.4600   18.2300   53.9700 C   0  0  0  0  0  0  0  0  0  0  0  0
   25.6100   17.5000   54.0000 H   0  0  0  0  0  0  0  0  0  0  0  0
   27.3300   17.6900   53.5400 H   0  0  0  0  0  0  0  0  0  0  0  0
   26.0500   19.4200   53.1500 C   0  0  0  0  0  0  0  0  0  0  0  0
   26.8400   20.1900   53.2800 H   0  0  0  0  0  0  0  0  0  0  0  0
   25.0900   19.8500   53.5300 H   0  0  0  0  0  0  0  0  0  0  0  0
   25.9300   19.1400   51.6600 C   0  0  0  0  0  0  0  0  0  0  0  0
   25.0400   18.5100   51.4300 H   0  0  0  0  0  0  0  0  0  0  0  0
   26.8300   18.6100   51.2900 H   0  0  0  0  0  0  0  0  0  0  0  0
   25.8100   20.5100   51.0200 C   0  0  0  0  0  0  0  0  0  0  0  0
   26.7500   21.0800   51.2000 H   0  0  0  0  0  0  0  0  0  0  0  0
   25.0000   21.0800   51.5400 H   0  0  0  0  0  0  0  0  0  0  0  0
   25.5100   20.4700   49.5400 C   0  0  0  0  0  0  0  0  0  0  0  0
   24.8600   19.5900   49.3200 H   0  0  0  0  0  0  0  0  0  0  0  0
   26.4500   20.3200   48.9700 H   0  0  0  0  0  0  0  0  0  0  0  0
   24.7700   21.7400   49.1000 C   0  0  0  0  0  0  0  0  0  0  0  0
   25.4100   22.6400   49.3000 H   0  0  0  0  0  0  0  0  0  0  0  0
   23.8500   21.8400   49.7300 H   0  0  0  0  0  0  0  0  0  0  0  0
   24.3700   21.6900   47.6300 C   0  0  0  0  0  0  0  0  0  0  0  0
   23.6400   22.5000   47.4300 H   0  0  0  0  0  0  0  0  0  0  0  0
   23.8600   20.7100   47.4300 H   0  0  0  0  0  0  0  0  0  0  0  0
   25.5900   21.8300   46.7100 C   0  0  0  0  0  0  0  0  0  0  0  0
   26.0900   20.8400   46.6400 H   0  0  0  0  0  0  0  0  0  0  0  0
   26.3100   22.5400   47.1700 H   0  0  0  0  0  0  0  0  0  0  0  0
   25.2400   22.2900   45.2900 C   0  0  0  0  0  0  0  0  0  0  0  0
   24.3500   21.7200   44.9600 H   0  0  0  0  0  0  0  0  0  0  0  0
   26.0700   22.0300   44.6100 H   0  0  0  0  0  0  0  0  0  0  0  0
   25.0400   23.7700   45.2000 C   0  0  0  0  0  0  0  0  0  0  0  0
   25.3300   24.4200   46.0200 H   0  0  0  0  0  0  0  0  0  0  0  0
   24.3900   24.3100   44.1900 C   0  0  0  0  0  0  0  0  0  0  0  0
   24.0600   25.3500   44.2000 H   0  0  0  0  0  0  0  0  0  0  0  0
   23.8000   23.5000   43.0900 C   0  0  0  0  0  0  0  0  0  0  0  0
   22.7900   23.2700   43.3600 H   0  0  0  0  0  0  0  0  0  0  0  0
   24.2700   22.5300   42.8600 H   0  0  0  0  0  0  0  0  0  0  0  0
   23.8500   24.3900   41.9000 C   0  0  0  0  0  0  0  0  0  0  0  0
   23.4000   25.4000   42.0500 H   0  0  0  0  0  0  0  0  0  0  0  0
   23.1700   24.0000   41.1600 H   0  0  0  0  0  0  0  0  0  0  0  0
   25.3000   24.3200   41.4500 C   0  0  0  0  0  0  0  0  0  0  0  0
   25.6100   23.3000   41.1700 H   0  0  0  0  0  0  0  0  0  0  0  0
   26.0000   24.6500   42.2500 H   0  0  0  0  0  0  0  0  0  0  0  0
   25.4700   25.2400   40.3100 C   0  0  0  0  0  0  0  0  0  0  0  0
   26.5200   25.4800   40.0800 H   0  0  0  0  0  0  0  0  0  0  0  0
   24.9000   26.1000   40.6200 H   0  0  0  0  0  0  0  0  0  0  0  0
   24.5400   25.2200   39.1600 C   0  0  0  0  0  0  0  0  0  0  0  0
   24.6600   26.1400   38.6900 H   0  0  0  0  0  0  0  0  0  0  0  0
   23.4500   25.1500   39.3900 H   0  0  0  0  0  0  0  0  0  0  0  0
   25.1000   24.4400   38.0600 C   0  0  0  0  0  0  0  0  0  0  0  0
   24.4000   24.4400   37.2000 H   0  0  0  0  0  0  0  0  0  0  0  0
   24.9100   23.7300   38.8500 H   0  0  0  0  0  0  0  0  0  0  0  0
   26.6000   24.2300   37.8500 C   0  0  0  0  0  0  0  0  0  0  0  0
   27.0700   23.9600   38.8200 H   0  0  0  0  0  0  0  0  0  0  0  0
   27.2100   25.0000   37.3800 H   0  0  0  0  0  0  0  0  0  0  0  0
   26.7900   23.1100   36.9200 C   0  0  0  0  0  0  0  0  0  0  0  0
   26.1400   23.1600   36.0200 H   0  0  0  0  0  0  0  0  0  0  0  0
   27.8400   22.8700   36.6700 H   0  0  0  0  0  0  0  0  0  0  0  0
   26.4400   22.3400   37.6000 H   0  0  0  0  0  0  0  0  0  0  0  0
  1  4  1  0  0  0  0
  2  1  1  0  0  0  0
  3  1  1  0  0  0  0
  5  1  1  0  0  0  0
  5  6  1  1  0  0  0
  7  9  1  0  0  0  0
  7  5  1  0  0  0  0
  8  7  2  0  0  0  0
 10 16  1  0  0  0  0
 10  5  1  0  0  0  0
 10 11  1  0  0  0  0
 12 10  1  0  0  0  0
 13 17  1  6  0  0  0
 13 15  1  0  0  0  0
 13 16  1  0  0  0  0
 14 13  2  0  0  0  0
 18 20  1  0  0  0  0
 18 17  1  0  0  0  0
 19 18  1  0  0  0  0
 21 22  1  1  0  0  0
 21 23  1  0  0  0  0
 21 18  1  0  0  0  0
 24 23  1  0  0  0  0
 24 26  1  0  0  0  0
 25 24  2  0  0  0  0
 26 28  1  0  0  0  0
 27 26  1  0  0  0  0
 29 21  1  0  0  0  0
 30 29  1  0  0  0  0
 31 29  1  0  0  0  0
 32 29  1  0  0  0  0
 33 32  1  0  0  0  0
 34 33  2  0  0  0  0
 35 33  1  0  0  0  0
 35 36  1  0  0  0  0
 37 35  1  0  0  0  0
 38 26  1  0  0  0  0
 38 39  1  0  0  0  0
 40 38  1  0  0  0  0
 41 42  1  0  0  0  0
 41 38  1  0  0  0  0
 43 41  1  0  0  0  0
 44 45  1  0  0  0  0
 44 41  1  0  0  0  0
 46 44  1  0  0  0  0
 47 48  1  0  0  0  0
 47 44  1  0  0  0  0
 49 47  1  0  0  0  0
 50 47  1  0  0  0  0
 50 52  1  0  0  0  0
 51 50  1  0  0  0  0
 53 55  1  0  0  0  0
 53 50  1  0  0  0  0
 54 53  1  0  0  0  0
 56 59  1  0  0  0  0
 56 53  1  0  0  0  0
 57 56  1  0  0  0  0
 58 56  1  0  0  0  0
 59 61  1  0  0  0  0
 59 60  1  0  0  0  0
 62 64  1  0  0  0  0
 62 59  1  0  0  0  0
 63 62  1  0  0  0  0
 65 66  1  0  0  0  0
 65 62  1  0  0  0  0
 67 65  1  0  0  0  0
 68 69  1  0  0  0  0
 68 65  1  0  0  0  0
 70 68  1  0  0  0  0
 71 68  1  0  0  0  0
 71 73  1  0  0  0  0
 72 71  1  0  0  0  0
 74 75  1  0  0  0  0
 74 71  1  0  0  0  0
 76 74  2  0  0  0  0
 77 76  1  0  0  0  0
 78 80  1  0  0  0  0
 78 79  1  0  0  0  0
 78 76  1  0  0  0  0
 81 78  1  0  0  0  0
 82 81  1  0  0  0  0
 83 81  1  0  0  0  0
 84 81  1  0  0  0  0
 84 86  1  0  0  0  0
 85 84  1  0  0  0  0
 87 84  1  0  0  0  0
 88 87  1  0  0  0  0
 89 87  1  0  0  0  0
 90 91  1  0  0  0  0
 90 87  1  0  0  0  0
 92 90  1  0  0  0  0
 93 95  1  0  0  0  0
 93 90  1  0  0  0  0
 94 93  1  0  0  0  0
 96 99  1  0  0  0  0
 96 93  1  0  0  0  0
 97 96  1  0  0  0  0
 98 96  1  0  0  0  0
 99100  1  0  0  0  0
 99102  1  0  0  0  0
101 99  1  0  0  0  0
103104  1  0  0  0  0
103 35  1  0  0  0  0
105103  1  0  0  0  0
106103  1  0  0  0  0
107106  1  0  0  0  0
108106  1  0  0  0  0
109111  1  0  0  0  0
109106  1  0  0  0  0
109110  1  0  0  0  0
112113  1  0  0  0  0
112109  1  0  0  0  0
114112  1  0  0  0  0
115116  1  0  0  0  0
115117  1  0  0  0  0
115112  1  0  0  0  0
118115  1  0  0  0  0
119118  1  0  0  0  0
120118  1  0  0  0  0
121122  1  0  0  0  0
121123  1  0  0  0  0
121118  1  0  0  0  0
124121  1  0  0  0  0
125124  1  0  0  0  0
126124  1  0  0  0  0
127128  1  0  0  0  0
127124  1  0  0  0  0
127129  1  0  0  0  0
130127  1  0  0  0  0
131130  1  0  0  0  0
132130  1  0  0  0  0
133135  1  0  0  0  0
133130  1  0  0  0  0
134133  1  0  0  0  0
136133  1  0  0  0  0
137136  1  0  0  0  0
138136  1  0  0  0  0
139136  1  0  0  0  0
139140  1  0  0  0  0
141142  1  0  0  0  0
141139  2  0  0  0  0
143144  1  0  0  0  0
143141  1  0  0  0  0
145143  1  0  0  0  0
146147  1  0  0  0  0
146143  1  0  0  0  0
148146  1  0  0  0  0
149146  1  0  0  0  0
149151  1  0  0  0  0
150149  1  0  0  0  0
152154  1  0  0  0  0
152149  1  0  0  0  0
153152  1  0  0  0  0
155157  1  0  0  0  0
155152  1  0  0  0  0
156155  1  0  0  0  0
158160  1  0  0  0  0
158155  1  0  0  0  0
159158  1  0  0  0  0
161158  1  0  0  0  0
161162  1  0  0  0  0
163161  1  0  0  0  0
164167  1  0  0  0  0
164161  1  0  0  0  0
165164  1  0  0  0  0
166164  1  0  0  0  0
M  END
