DXPS
 OpenBabel02161614153D

119118  0  0  1  0  0  0  0  0999 V2000
   25.4200   16.8500   57.0700 N   0  0  0  0  0  0  0  0  0  0  0  0
   24.7800   17.0500   56.2800 H   0  0  0  0  0  0  0  0  0  0  0  0
   25.0100   16.9400   58.0100 H   0  0  0  0  0  0  0  0  0  0  0  0
   26.1900   17.5600   57.0400 H   0  0  0  0  0  0  0  0  0  0  0  0
   26.2600   15.6100   56.8900 C   0  0  1  0  0  0  0  0  0  0  0  0
   26.8600   15.6700   55.9900 H   0  0  0  0  0  0  0  0  0  0  0  0
   27.2200   15.4400   58.1000 C   0  0  0  0  0  0  0  0  0  0  0  0
   27.1400   16.3600   58.9700 O   0  0  0  0  0  0  0  0  0  0  0  0
   28.2400   14.7300   57.9700 O   0  0  0  0  0  0  0  0  0  0  0  0
   25.2600   14.4700   56.7900 C   0  0  0  0  0  0  0  0  0  0  0  0
   24.5200   14.6600   55.9700 H   0  0  0  0  0  0  0  0  0  0  0  0
   24.7600   14.5200   57.7700 H   0  0  0  0  0  0  0  0  0  0  0  0
   26.8200   12.9100   55.4000 P   0  0  1  0  0  0  0  0  0  0  0  0
   28.1200   13.6100   55.3900 O   0  0  0  0  0  0  0  0  0  0  0  0
   26.9100   11.4400   55.2200 O   0  0  0  0  0  0  0  0  0  0  0  0
   25.8800   13.2100   56.6700 O   0  0  0  0  0  0  0  0  0  0  0  0
   25.9200   13.7200   54.3400 O   0  0  0  0  0  0  0  0  0  0  0  0
   24.7600   13.3100   53.6200 C   0  0  0  0  0  0  0  0  0  0  0  0
   24.3600   14.0700   52.9100 H   0  0  0  0  0  0  0  0  0  0  0  0
   23.9600   12.9200   54.2900 H   0  0  0  0  0  0  0  0  0  0  0  0
   25.1700   12.1900   52.7700 C   0  0  2  0  0  0  0  0  0  0  0  0
   25.4900   11.4300   53.4800 H   0  0  0  0  0  0  0  0  0  0  0  0
   26.4300   12.7100   52.0200 O   0  0  0  0  0  0  0  0  0  0  0  0
   27.7000   12.2400   51.5100 C   0  0  0  0  0  0  0  0  0  0  0  0
   28.1200   11.1300   51.4400 O   0  0  0  0  0  0  0  0  0  0  0  0
   28.5900   13.2200   50.6600 C   0  0  0  0  0  0  0  0  0  0  0  0
   29.1800   12.5000   50.0400 H   0  0  0  0  0  0  0  0  0  0  0  0
   29.3000   13.7400   51.3000 H   0  0  0  0  0  0  0  0  0  0  0  0
   23.6400   11.7600   51.9300 C   0  0  0  0  0  0  0  0  0  0  0  0
   22.7900   11.5400   52.5700 H   0  0  0  0  0  0  0  0  0  0  0  0
   23.6400   10.7100   51.5200 H   0  0  0  0  0  0  0  0  0  0  0  0
   23.0800   12.6600   50.9300 O   0  0  0  0  0  0  0  0  0  0  0  0
   22.8600   12.4100   49.6200 C   0  0  0  0  0  0  0  0  0  0  0  0
   22.7300   11.3300   49.0900 O   0  0  0  0  0  0  0  0  0  0  0  0
   22.8200   13.7800   48.8600 C   0  0  0  0  0  0  0  0  0  0  0  0
   21.7800   13.9000   48.5600 H   0  0  0  0  0  0  0  0  0  0  0  0
   23.2500   13.8000   47.8600 H   0  0  0  0  0  0  0  0  0  0  0  0
   28.0300   14.0800   49.5100 C   0  0  0  0  0  0  0  0  0  0  0  0
   27.1200   14.6300   49.8000 H   0  0  0  0  0  0  0  0  0  0  0  0
   27.8700   13.3600   48.6600 H   0  0  0  0  0  0  0  0  0  0  0  0
   28.9300   15.1300   48.9400 C   0  0  0  0  0  0  0  0  0  0  0  0
   29.2800   15.8200   49.7200 H   0  0  0  0  0  0  0  0  0  0  0  0
   28.3400   15.6600   48.1400 H   0  0  0  0  0  0  0  0  0  0  0  0
   30.0700   14.3900   48.3300 C   0  0  0  0  0  0  0  0  0  0  0  0
   29.4400   13.8100   47.6800 H   0  0  0  0  0  0  0  0  0  0  0  0
   30.5300   13.5900   48.9000 H   0  0  0  0  0  0  0  0  0  0  0  0
   31.0800   15.3000   47.6800 C   0  0  0  0  0  0  0  0  0  0  0  0
   31.6300   15.6200   48.5300 H   0  0  0  0  0  0  0  0  0  0  0  0
   30.5000   16.1100   47.1700 H   0  0  0  0  0  0  0  0  0  0  0  0
   32.0800   14.8500   46.6500 C   0  0  0  0  0  0  0  0  0  0  0  0
   31.3500   14.1500   46.4100 H   0  0  0  0  0  0  0  0  0  0  0  0
   32.6700   13.9300   46.6900 H   0  0  0  0  0  0  0  0  0  0  0  0
   32.5000   15.8000   45.4900 C   0  0  0  0  0  0  0  0  0  0  0  0
   33.4300   15.8900   46.0400 H   0  0  0  0  0  0  0  0  0  0  0  0
   32.0700   16.8600   45.3500 H   0  0  0  0  0  0  0  0  0  0  0  0
   33.3500   15.4400   44.3600 C   0  0  0  0  0  0  0  0  0  0  0  0
   33.5000   14.2900   44.5000 H   0  0  0  0  0  0  0  0  0  0  0  0
   33.5300   15.9300   43.2300 C   0  0  0  0  0  0  0  0  0  0  0  0
   34.2500   15.3700   42.5300 H   0  0  0  0  0  0  0  0  0  0  0  0
   33.2300   17.3500   42.8100 C   0  0  0  0  0  0  0  0  0  0  0  0
   33.8700   18.1300   43.1600 H   0  0  0  0  0  0  0  0  0  0  0  0
   32.1300   17.5200   43.1800 H   0  0  0  0  0  0  0  0  0  0  0  0
   33.2400   17.4300   41.2700 C   0  0  0  0  0  0  0  0  0  0  0  0
   34.2900   17.3600   40.8800 H   0  0  0  0  0  0  0  0  0  0  0  0
   32.8000   18.3800   40.9100 H   0  0  0  0  0  0  0  0  0  0  0  0
   32.5100   16.2700   40.6300 C   0  0  0  0  0  0  0  0  0  0  0  0
   31.4300   16.2700   40.8700 H   0  0  0  0  0  0  0  0  0  0  0  0
   33.0400   15.4300   41.0400 H   0  0  0  0  0  0  0  0  0  0  0  0
   32.7700   15.8900   39.2100 C   0  0  0  0  0  0  0  0  0  0  0  0
   32.2300   14.9900   38.9600 H   0  0  0  0  0  0  0  0  0  0  0  0
   33.8200   15.6600   38.9500 H   0  0  0  0  0  0  0  0  0  0  0  0
   32.2000   16.9700   38.4100 C   0  0  0  0  0  0  0  0  0  0  0  0
   32.4500   16.7300   37.3700 H   0  0  0  0  0  0  0  0  0  0  0  0
   32.8500   17.8100   38.7000 H   0  0  0  0  0  0  0  0  0  0  0  0
   30.7200   17.4000   38.5600 C   0  0  0  0  0  0  0  0  0  0  0  0
   30.6200   18.0300   39.4700 H   0  0  0  0  0  0  0  0  0  0  0  0
   30.3900   18.0500   37.7200 H   0  0  0  0  0  0  0  0  0  0  0  0
   30.0000   16.5700   38.5600 H   0  0  0  0  0  0  0  0  0  0  0  0
   23.6200   15.0000   49.4300 C   0  0  0  0  0  0  0  0  0  0  0  0
   24.7200   14.9400   49.5400 H   0  0  0  0  0  0  0  0  0  0  0  0
   23.2500   15.1100   50.4700 H   0  0  0  0  0  0  0  0  0  0  0  0
   23.4300   16.2400   48.5200 C   0  0  0  0  0  0  0  0  0  0  0  0
   23.3400   17.1000   49.2200 H   0  0  0  0  0  0  0  0  0  0  0  0
   22.5000   16.0900   47.9600 H   0  0  0  0  0  0  0  0  0  0  0  0
   24.4500   16.6800   47.4300 C   0  0  0  0  0  0  0  0  0  0  0  0
   25.3200   17.2000   47.8900 H   0  0  0  0  0  0  0  0  0  0  0  0
   23.8900   17.4500   46.8400 H   0  0  0  0  0  0  0  0  0  0  0  0
   24.9500   15.7300   46.3400 C   0  0  0  0  0  0  0  0  0  0  0  0
   24.0900   15.2000   45.8700 H   0  0  0  0  0  0  0  0  0  0  0  0
   25.6600   14.9600   46.6900 H   0  0  0  0  0  0  0  0  0  0  0  0
   25.7800   16.4600   45.2700 C   0  0  0  0  0  0  0  0  0  0  0  0
   26.8600   16.3100   45.5500 H   0  0  0  0  0  0  0  0  0  0  0  0
   25.6100   17.5500   45.2900 H   0  0  0  0  0  0  0  0  0  0  0  0
   25.4900   15.9600   43.8500 C   0  0  0  0  0  0  0  0  0  0  0  0
   26.2000   16.5100   43.1700 H   0  0  0  0  0  0  0  0  0  0  0  0
   24.5200   16.1800   43.4100 H   0  0  0  0  0  0  0  0  0  0  0  0
   25.5900   14.4800   43.9800 C   0  0  0  0  0  0  0  0  0  0  0  0
   24.7500   13.7900   44.1400 H   0  0  0  0  0  0  0  0  0  0  0  0
   26.7300   14.0000   43.7400 C   0  0  0  0  0  0  0  0  0  0  0  0
   26.9800   12.9200   43.8400 H   0  0  0  0  0  0  0  0  0  0  0  0
   27.8000   14.9900   43.3400 C   0  0  0  0  0  0  0  0  0  0  0  0
   28.3800   14.1400   43.5500 H   0  0  0  0  0  0  0  0  0  0  0  0
   28.1400   15.8000   44.0200 H   0  0  0  0  0  0  0  0  0  0  0  0
   28.4300   15.2000   42.0400 C   0  0  0  0  0  0  0  0  0  0  0  0
   29.5400   15.2500   42.2100 H   0  0  0  0  0  0  0  0  0  0  0  0
   28.3000   16.0200   41.3300 H   0  0  0  0  0  0  0  0  0  0  0  0
   27.9500   13.8700   41.5600 C   0  0  0  0  0  0  0  0  0  0  0  0
   28.0900   12.9500   42.2100 H   0  0  0  0  0  0  0  0  0  0  0  0
   28.7000   14.0500   40.8600 H   0  0  0  0  0  0  0  0  0  0  0  0
   26.9300   13.4800   40.6600 C   0  0  0  0  0  0  0  0  0  0  0  0
   25.9800   13.5000   41.1900 H   0  0  0  0  0  0  0  0  0  0  0  0
   27.1300   12.4300   40.2800 H   0  0  0  0  0  0  0  0  0  0  0  0
   26.9100   14.4500   39.6100 C   0  0  0  0  0  0  0  0  0  0  0  0
   27.9400   14.5600   39.1700 H   0  0  0  0  0  0  0  0  0  0  0  0
   26.6900   15.4500   40.0500 H   0  0  0  0  0  0  0  0  0  0  0  0
   25.8300   13.7600   38.7900 C   0  0  0  0  0  0  0  0  0  0  0  0
   26.2300   12.8000   38.4000 H   0  0  0  0  0  0  0  0  0  0  0  0
   24.9100   13.6600   39.3900 H   0  0  0  0  0  0  0  0  0  0  0  0
   25.4700   14.2800   37.9100 H   0  0  0  0  0  0  0  0  0  0  0  0
  1  3  1  0  0  0  0
  2  1  1  0  0  0  0
  4  1  1  0  0  0  0
  5  6  1  6  0  0  0
  5  1  1  0  0  0  0
  5  7  1  0  0  0  0
  7  8  1  0  0  0  0
  9  7  2  0  0  0  0
 10  5  1  0  0  0  0
 10 12  1  0  0  0  0
 11 10  1  0  0  0  0
 13 17  1  6  0  0  0
 13 16  1  0  0  0  0
 14 13  1  0  0  0  0
 15 13  2  0  0  0  0
 16 10  1  0  0  0  0
 18 20  1  0  0  0  0
 18 17  1  0  0  0  0
 19 18  1  0  0  0  0
 21 22  1  1  0  0  0
 21 18  1  0  0  0  0
 23 21  1  0  0  0  0
 24 23  1  0  0  0  0
 25 24  2  0  0  0  0
 26 28  1  0  0  0  0
 26 24  1  0  0  0  0
 27 26  1  0  0  0  0
 29 30  1  0  0  0  0
 29 21  1  0  0  0  0
 31 29  1  0  0  0  0
 32 29  1  0  0  0  0
 33 32  1  0  0  0  0
 34 33  2  0  0  0  0
 35 79  1  0  0  0  0
 35 33  1  0  0  0  0
 36 35  1  0  0  0  0
 37 35  1  0  0  0  0
 38 39  1  0  0  0  0
 38 26  1  0  0  0  0
 40 38  1  0  0  0  0
 41 38  1  0  0  0  0
 41 42  1  0  0  0  0
 43 41  1  0  0  0  0
 44 46  1  0  0  0  0
 44 41  1  0  0  0  0
 45 44  1  0  0  0  0
 47 44  1  0  0  0  0
 47 48  1  0  0  0  0
 49 47  1  0  0  0  0
 50 52  1  0  0  0  0
 50 47  1  0  0  0  0
 51 50  1  0  0  0  0
 53 54  1  0  0  0  0
 53 50  1  0  0  0  0
 55 53  1  0  0  0  0
 56 57  1  0  0  0  0
 56 53  1  0  0  0  0
 58 56  1  0  0  0  0
 59 58  1  0  0  0  0
 60 61  1  0  0  0  0
 60 62  1  0  0  0  0
 60 58  1  0  0  0  0
 63 60  1  0  0  0  0
 64 63  1  0  0  0  0
 65 63  1  0  0  0  0
 66 67  1  0  0  0  0
 66 68  1  0  0  0  0
 66 63  1  0  0  0  0
 69 66  1  0  0  0  0
 70 69  1  0  0  0  0
 71 69  1  0  0  0  0
 72 75  1  0  0  0  0
 72 74  1  0  0  0  0
 72 69  1  0  0  0  0
 73 72  1  0  0  0  0
 75 76  1  0  0  0  0
 77 75  1  0  0  0  0
 78 75  1  0  0  0  0
 79 80  1  0  0  0  0
 79 81  1  0  0  0  0
 82 83  1  0  0  0  0
 82 79  1  0  0  0  0
 84 82  1  0  0  0  0
 85 86  1  0  0  0  0
 85 82  1  0  0  0  0
 87 85  1  0  0  0  0
 88 90  1  0  0  0  0
 88 85  1  0  0  0  0
 89 88  1  0  0  0  0
 91 93  1  0  0  0  0
 91 92  1  0  0  0  0
 91 88  1  0  0  0  0
 94 97  1  0  0  0  0
 94 91  1  0  0  0  0
 95 94  1  0  0  0  0
 96 94  1  0  0  0  0
 97 98  1  0  0  0  0
 99100  1  0  0  0  0
 99 97  2  0  0  0  0
101102  1  0  0  0  0
101 99  1  0  0  0  0
101103  1  0  0  0  0
104105  1  0  0  0  0
104101  1  0  0  0  0
106104  1  0  0  0  0
107104  1  0  0  0  0
107108  1  0  0  0  0
109107  1  0  0  0  0
110111  1  0  0  0  0
110107  1  0  0  0  0
112110  1  0  0  0  0
113115  1  0  0  0  0
113110  1  0  0  0  0
114113  1  0  0  0  0
116118  1  0  0  0  0
116113  1  0  0  0  0
117116  1  0  0  0  0
119116  1  0  0  0  0
M  END
