PMCL2
 OpenBabel02161614153D

233231  0  0  1  0  0  0  0  0999 V2000
   56.7100    6.3800   58.4800 C   0  0  0  0  0  0  0  0  0  0  0  0
   57.3000    7.2700   58.1900 H   0  0  0  0  0  0  0  0  0  0  0  0
   56.1900    6.6700   59.4100 H   0  0  0  0  0  0  0  0  0  0  0  0
   58.7400    4.9500   57.7800 P   0  0  2  0  0  0  0  0  0  0  0  0
   59.7800    4.2900   58.6100 O   0  0  0  0  0  0  0  0  0  0  0  0
   59.1200    6.1100   56.9500 O   0  0  0  0  0  0  0  0  0  0  0  0
   57.5200    5.2400   58.7400 O   0  0  0  0  0  0  0  0  0  0  0  0
   58.1100    3.8900   56.8500 O   0  0  0  0  0  0  0  0  0  0  0  0
   57.8700    2.5500   57.3200 C   0  0  0  0  0  0  0  0  0  0  0  0
   58.6800    2.1300   57.9600 H   0  0  0  0  0  0  0  0  0  0  0  0
   56.8700    2.4700   57.7300 H   0  0  0  0  0  0  0  0  0  0  0  0
   55.6800    6.1100   57.3500 C   0  0  1  0  0  0  0  0  0  0  0  0
   56.3100    6.0600   56.4200 H   0  0  0  0  0  0  0  0  0  0  0  0
   55.0200    4.8700   57.5900 O   0  0  0  0  0  0  0  0  0  0  0  0
   55.7400    4.2200   57.6400 H   0  0  0  0  0  0  0  0  0  0  0  0
   54.6200    7.2300   57.2100 C   0  0  0  0  0  0  0  0  0  0  0  0
   54.3000    7.4600   58.2600 H   0  0  0  0  0  0  0  0  0  0  0  0
   53.7300    6.8500   56.6500 H   0  0  0  0  0  0  0  0  0  0  0  0
   54.7300    9.8100   57.0000 P   0  0  1  0  0  0  0  0  0  0  0  0
   53.2500    9.8700   56.8600 O   0  0  0  0  0  0  0  0  0  0  0  0
   55.3700   10.0600   58.3100 O   0  0  0  0  0  0  0  0  0  0  0  0
   55.1500    8.3600   56.5100 O   0  0  0  0  0  0  0  0  0  0  0  0
   55.4400   10.7400   55.9600 O   0  0  0  0  0  0  0  0  0  0  0  0
   55.4400   10.4100   54.5800 C   0  0  0  0  0  0  0  0  0  0  0  0
   55.4400   11.3600   54.0800 H   0  0  0  0  0  0  0  0  0  0  0  0
   54.4900    9.9300   54.2700 H   0  0  0  0  0  0  0  0  0  0  0  0
   56.7200    9.6500   54.0900 C   0  0  2  0  0  0  0  0  0  0  0  0
   56.5600    8.5900   54.4000 H   0  0  0  0  0  0  0  0  0  0  0  0
   57.9200   10.1900   54.6900 O   0  0  0  0  0  0  0  0  0  0  0  0
   58.9300    9.2900   54.7600 C   0  0  0  0  0  0  0  0  0  0  0  0
   58.8900    8.1500   54.3800 O   0  0  0  0  0  0  0  0  0  0  0  0
   60.2100    9.9100   55.2400 C   0  0  0  0  0  0  0  0  0  0  0  0
   61.0100    9.1900   55.3900 H   0  0  0  0  0  0  0  0  0  0  0  0
   60.0500   10.5600   56.1400 H   0  0  0  0  0  0  0  0  0  0  0  0
   56.8800    9.6800   52.5300 C   0  0  0  0  0  0  0  0  0  0  0  0
   55.9300    9.3100   52.1100 H   0  0  0  0  0  0  0  0  0  0  0  0
   57.6600    8.9500   52.2300 H   0  0  0  0  0  0  0  0  0  0  0  0
   57.1700   11.0100   52.0600 O   0  0  0  0  0  0  0  0  0  0  0  0
   57.5000   11.1400   50.8000 C   0  0  0  0  0  0  0  0  0  0  0  0
   57.6400   10.2400   49.9900 O   0  0  0  0  0  0  0  0  0  0  0  0
   57.5700   12.6300   50.4800 C   0  0  0  0  0  0  0  0  0  0  0  0
   58.1500   13.1800   51.1900 H   0  0  0  0  0  0  0  0  0  0  0  0
   56.6300   13.1400   50.6100 H   0  0  0  0  0  0  0  0  0  0  0  0
   57.8100    1.6200   56.1400 C   0  0  2  0  0  0  0  0  0  0  0  0
   58.3000    0.5800   56.4000 H   0  0  0  0  0  0  0  0  0  0  0  0
   58.2000    2.2500   55.0800 O   0  0  0  0  0  0  0  0  0  0  0  0
   59.3200    2.3300   55.2600 C   0  0  0  0  0  0  0  0  0  0  0  0
   59.9600    1.5400   55.9900 O   0  0  0  0  0  0  0  0  0  0  0  0
   59.7700    3.5700   54.3400 C   0  0  0  0  0  0  0  0  0  0  0  0
   59.5600    2.4500   53.9000 H   0  0  0  0  0  0  0  0  0  0  0  0
   60.9000    3.9400   54.0000 H   0  0  0  0  0  0  0  0  0  0  0  0
   56.6900    1.1700   55.6100 C   0  0  0  0  0  0  0  0  0  0  0  0
   56.9800    0.6400   54.6900 H   0  0  0  0  0  0  0  0  0  0  0  0
   56.3600    0.5200   56.4400 H   0  0  0  0  0  0  0  0  0  0  0  0
   55.8600    2.2800   55.2200 O   0  0  0  0  0  0  0  0  0  0  0  0
   55.9000    2.6900   53.9600 C   0  0  0  0  0  0  0  0  0  0  0  0
   56.5500    2.2300   53.0400 O   0  0  0  0  0  0  0  0  0  0  0  0
   54.9000    3.8100   53.8600 C   0  0  0  0  0  0  0  0  0  0  0  0
   54.5000    4.0000   54.8900 H   0  0  0  0  0  0  0  0  0  0  0  0
   54.1300    3.4300   53.1700 H   0  0  0  0  0  0  0  0  0  0  0  0
   60.8000   10.6800   54.1000 C   0  0  0  0  0  0  0  0  0  0  0  0
   61.7100   11.1600   54.4400 H   0  0  0  0  0  0  0  0  0  0  0  0
   59.9600   11.3500   54.0700 H   0  0  0  0  0  0  0  0  0  0  0  0
   60.9800   10.2900   52.6300 C   0  0  0  0  0  0  0  0  0  0  0  0
   59.9700   10.2300   52.1900 H   0  0  0  0  0  0  0  0  0  0  0  0
   61.4700    9.3100   52.7300 H   0  0  0  0  0  0  0  0  0  0  0  0
   61.9200   11.1900   51.7500 C   0  0  0  0  0  0  0  0  0  0  0  0
   62.6300   11.6900   52.4500 H   0  0  0  0  0  0  0  0  0  0  0  0
   61.3600   11.9800   51.1900 H   0  0  0  0  0  0  0  0  0  0  0  0
   62.8100   10.4100   50.8000 C   0  0  0  0  0  0  0  0  0  0  0  0
   63.4600    9.8100   51.4600 H   0  0  0  0  0  0  0  0  0  0  0  0
   63.4800   11.1000   50.2300 H   0  0  0  0  0  0  0  0  0  0  0  0
   62.0500    9.5400   49.8200 C   0  0  0  0  0  0  0  0  0  0  0  0
   61.2200    9.0100   50.3100 H   0  0  0  0  0  0  0  0  0  0  0  0
   62.7100    8.7700   49.4000 H   0  0  0  0  0  0  0  0  0  0  0  0
   61.4600   10.3100   48.6400 C   0  0  0  0  0  0  0  0  0  0  0  0
   60.8300   11.1000   49.1000 H   0  0  0  0  0  0  0  0  0  0  0  0
   60.8300    9.6000   48.0600 H   0  0  0  0  0  0  0  0  0  0  0  0
   62.5500   10.8700   47.7400 C   0  0  1  0  0  0  0  0  0  0  0  0
   63.5600   11.1100   48.1300 H   0  0  0  0  0  0  0  0  0  0  0  0
   62.5700   10.3900   46.2900 C   0  0  0  0  0  0  0  0  0  0  0  0
   63.6200   10.2200   46.0300 H   0  0  0  0  0  0  0  0  0  0  0  0
   61.7600    9.7400   46.0100 H   0  0  0  0  0  0  0  0  0  0  0  0
   62.0800   11.6900   46.6000 C   0  0  1  0  0  0  0  0  0  0  0  0
   62.9100   12.3100   46.2600 H   0  0  0  0  0  0  0  0  0  0  0  0
   60.5400   11.7500   46.3800 C   0  0  0  0  0  0  0  0  0  0  0  0
   60.1300   10.7800   46.0400 H   0  0  0  0  0  0  0  0  0  0  0  0
   60.1000   12.0100   47.3600 H   0  0  0  0  0  0  0  0  0  0  0  0
   59.9100   12.6500   45.3100 C   0  0  0  0  0  0  0  0  0  0  0  0
   60.0400   13.7200   45.5100 H   0  0  0  0  0  0  0  0  0  0  0  0
   58.8500   12.7100   45.2100 H   0  0  0  0  0  0  0  0  0  0  0  0
   60.4800   12.3000   43.9400 C   0  0  0  0  0  0  0  0  0  0  0  0
   60.0600   11.3400   43.6500 H   0  0  0  0  0  0  0  0  0  0  0  0
   61.5100   11.8800   44.1000 H   0  0  0  0  0  0  0  0  0  0  0  0
   60.3400   13.6500   43.0700 C   0  0  0  0  0  0  0  0  0  0  0  0
   59.2600   13.8000   43.2600 H   0  0  0  0  0  0  0  0  0  0  0  0
   60.5100   13.5200   42.0000 H   0  0  0  0  0  0  0  0  0  0  0  0
   61.1600   15.0700   43.1900 C   0  0  0  0  0  0  0  0  0  0  0  0
   62.2500   15.1500   43.2200 H   0  0  0  0  0  0  0  0  0  0  0  0
   60.9100   15.6400   44.1300 H   0  0  0  0  0  0  0  0  0  0  0  0
   61.8300   15.8400   42.2000 C   0  0  0  0  0  0  0  0  0  0  0  0
   61.4900   15.6400   41.1700 H   0  0  0  0  0  0  0  0  0  0  0  0
   62.4400   16.7300   42.4700 H   0  0  0  0  0  0  0  0  0  0  0  0
   61.1500   16.3700   42.6300 H   0  0  0  0  0  0  0  0  0  0  0  0
   58.1400   12.8000   49.1000 C   0  0  0  0  0  0  0  0  0  0  0  0
   57.5500   12.3600   48.2900 H   0  0  0  0  0  0  0  0  0  0  0  0
   59.1600   12.3500   49.1600 H   0  0  0  0  0  0  0  0  0  0  0  0
   58.3600   14.1900   48.6500 C   0  0  0  0  0  0  0  0  0  0  0  0
   59.0100   14.0900   47.7600 H   0  0  0  0  0  0  0  0  0  0  0  0
   59.0700   14.5900   49.3100 H   0  0  0  0  0  0  0  0  0  0  0  0
   57.2400   15.1900   48.3500 C   0  0  0  0  0  0  0  0  0  0  0  0
   57.5600   16.2700   48.3400 H   0  0  0  0  0  0  0  0  0  0  0  0
   56.4700   15.1100   49.1400 H   0  0  0  0  0  0  0  0  0  0  0  0
   56.7800   14.8400   46.9600 C   0  0  0  0  0  0  0  0  0  0  0  0
   57.0100   13.7600   46.8000 H   0  0  0  0  0  0  0  0  0  0  0  0
   57.2300   15.4500   46.1700 H   0  0  0  0  0  0  0  0  0  0  0  0
   55.3300   14.9700   46.7800 C   0  0  0  0  0  0  0  0  0  0  0  0
   54.9400   15.9800   46.5400 H   0  0  0  0  0  0  0  0  0  0  0  0
   54.9600   14.7600   47.7100 H   0  0  0  0  0  0  0  0  0  0  0  0
   54.8000   13.8200   45.9700 C   0  0  0  0  0  0  0  0  0  0  0  0
   55.2000   14.0000   44.9600 H   0  0  0  0  0  0  0  0  0  0  0  0
   53.7600   14.0800   46.2200 H   0  0  0  0  0  0  0  0  0  0  0  0
   54.6000   12.3500   46.3700 C   0  0  0  0  0  0  0  0  0  0  0  0
   53.5200   12.1000   46.5700 H   0  0  0  0  0  0  0  0  0  0  0  0
   55.1700   12.1400   47.2900 H   0  0  0  0  0  0  0  0  0  0  0  0
   55.0600   11.4900   45.2200 C   0  0  0  0  0  0  0  0  0  0  0  0
   54.8400   12.0400   44.2800 H   0  0  0  0  0  0  0  0  0  0  0  0
   54.5600   10.5000   45.1900 H   0  0  0  0  0  0  0  0  0  0  0  0
   56.5700   11.3200   45.3100 C   0  0  0  0  0  0  0  0  0  0  0  0
   56.8700   10.7900   46.2300 H   0  0  0  0  0  0  0  0  0  0  0  0
   56.9900   12.3400   45.3300 H   0  0  0  0  0  0  0  0  0  0  0  0
   57.1600   10.5200   44.1700 C   0  0  0  0  0  0  0  0  0  0  0  0
   56.6300    9.5400   44.1300 H   0  0  0  0  0  0  0  0  0  0  0  0
   58.2300   10.3500   44.4300 H   0  0  0  0  0  0  0  0  0  0  0  0
   57.0700   11.2500   42.8400 C   0  0  0  0  0  0  0  0  0  0  0  0
   57.6800   12.1800   42.9200 H   0  0  0  0  0  0  0  0  0  0  0  0
   56.0200   11.5300   42.6400 H   0  0  0  0  0  0  0  0  0  0  0  0
   57.5800   10.3900   41.7000 C   0  0  0  0  0  0  0  0  0  0  0  0
   58.4800    9.8200   41.9700 H   0  0  0  0  0  0  0  0  0  0  0  0
   57.8400   11.1100   40.9200 H   0  0  0  0  0  0  0  0  0  0  0  0
   56.5900    9.3600   41.1900 C   0  0  0  0  0  0  0  0  0  0  0  0
   56.3800    8.6300   42.0100 H   0  0  0  0  0  0  0  0  0  0  0  0
   57.0200    8.7400   40.3700 H   0  0  0  0  0  0  0  0  0  0  0  0
   55.3200   10.0100   40.7000 C   0  0  0  0  0  0  0  0  0  0  0  0
   54.8800    9.2200   40.1100 H   0  0  0  0  0  0  0  0  0  0  0  0
   55.4600   10.8100   39.9600 H   0  0  0  0  0  0  0  0  0  0  0  0
   54.6400   10.3500   41.5100 H   0  0  0  0  0  0  0  0  0  0  0  0
   59.5500    4.9000   53.6600 C   0  0  0  0  0  0  0  0  0  0  0  0
   60.1400    5.4400   54.4600 H   0  0  0  0  0  0  0  0  0  0  0  0
   58.5000    4.9500   53.6800 H   0  0  0  0  0  0  0  0  0  0  0  0
   60.1600    5.3800   52.2700 C   0  0  0  0  0  0  0  0  0  0  0  0
   61.2400    5.2200   52.0300 H   0  0  0  0  0  0  0  0  0  0  0  0
   60.0700    6.4700   52.4600 H   0  0  0  0  0  0  0  0  0  0  0  0
   59.2600    5.2400   51.0300 C   0  0  0  0  0  0  0  0  0  0  0  0
   58.2100    5.2100   51.3500 H   0  0  0  0  0  0  0  0  0  0  0  0
   59.5000    4.4700   50.3100 H   0  0  0  0  0  0  0  0  0  0  0  0
   59.4600    6.3900   50.0700 C   0  0  0  0  0  0  0  0  0  0  0  0
   60.3700    6.3000   49.5600 H   0  0  0  0  0  0  0  0  0  0  0  0
   59.5800    7.3000   50.6400 H   0  0  0  0  0  0  0  0  0  0  0  0
   58.4800    6.5100   48.9400 C   0  0  0  0  0  0  0  0  0  0  0  0
   57.5300    6.6600   49.4700 H   0  0  0  0  0  0  0  0  0  0  0  0
   58.4000    5.6100   48.3500 H   0  0  0  0  0  0  0  0  0  0  0  0
   58.8200    7.6400   47.9800 C   0  0  0  0  0  0  0  0  0  0  0  0
   59.7200    7.4600   47.3700 H   0  0  0  0  0  0  0  0  0  0  0  0
   59.0200    8.5100   48.6400 H   0  0  0  0  0  0  0  0  0  0  0  0
   57.7000    7.9400   47.0000 C   0  0  0  0  0  0  0  0  0  0  0  0
   58.0100    8.7700   46.3300 H   0  0  0  0  0  0  0  0  0  0  0  0
   56.8300    8.2700   47.6100 H   0  0  0  0  0  0  0  0  0  0  0  0
   57.3300    6.7600   46.0900 C   0  0  0  0  0  0  0  0  0  0  0  0
   56.6500    7.1500   45.3000 H   0  0  0  0  0  0  0  0  0  0  0  0
   56.7700    6.0000   46.6700 H   0  0  0  0  0  0  0  0  0  0  0  0
   58.5600    6.1700   45.4100 C   0  0  0  0  0  0  0  0  0  0  0  0
   59.1800    5.6200   46.1600 H   0  0  0  0  0  0  0  0  0  0  0  0
   59.1600    7.0500   45.0900 H   0  0  0  0  0  0  0  0  0  0  0  0
   58.2400    5.2700   44.2100 C   0  0  0  0  0  0  0  0  0  0  0  0
   57.3800    4.6100   44.4200 H   0  0  0  0  0  0  0  0  0  0  0  0
   59.1300    4.6300   43.9900 H   0  0  0  0  0  0  0  0  0  0  0  0
   57.7900    6.0400   42.9700 C   0  0  0  0  0  0  0  0  0  0  0  0
   58.6700    6.6600   42.7100 H   0  0  0  0  0  0  0  0  0  0  0  0
   56.9300    6.6900   43.2300 H   0  0  0  0  0  0  0  0  0  0  0  0
   57.1900    5.2200   41.8200 C   0  0  0  0  0  0  0  0  0  0  0  0
   56.9900    5.8100   40.9000 H   0  0  0  0  0  0  0  0  0  0  0  0
   56.3300    4.6000   42.1000 H   0  0  0  0  0  0  0  0  0  0  0  0
   58.0900    4.2400   41.3200 C   0  0  0  0  0  0  0  0  0  0  0  0
   57.8300    3.8500   40.3100 H   0  0  0  0  0  0  0  0  0  0  0  0
   58.3100    3.3700   41.9000 H   0  0  0  0  0  0  0  0  0  0  0  0
   59.3500    4.8500   41.2400 C   0  0  0  0  0  0  0  0  0  0  0  0
   59.9300    5.4700   41.9100 H   0  0  0  0  0  0  0  0  0  0  0  0
   59.5100    5.0800   40.1400 H   0  0  0  0  0  0  0  0  0  0  0  0
   59.9900    4.0200   41.6500 H   0  0  0  0  0  0  0  0  0  0  0  0
   55.4700    5.1200   53.2900 C   0  0  0  0  0  0  0  0  0  0  0  0
   55.9900    4.8500   52.3600 H   0  0  0  0  0  0  0  0  0  0  0  0
   56.2200    5.5200   54.0100 H   0  0  0  0  0  0  0  0  0  0  0  0
   54.4100    6.2100   53.0200 C   0  0  0  0  0  0  0  0  0  0  0  0
   54.9000    7.2000   52.9400 H   0  0  0  0  0  0  0  0  0  0  0  0
   53.7100    6.2700   53.8800 H   0  0  0  0  0  0  0  0  0  0  0  0
   53.6300    6.0000   51.7100 C   0  0  0  0  0  0  0  0  0  0  0  0
   52.7900    6.7200   51.6300 H   0  0  0  0  0  0  0  0  0  0  0  0
   53.1800    4.9800   51.7700 H   0  0  0  0  0  0  0  0  0  0  0  0
   54.4600    6.1000   50.4200 C   0  0  0  0  0  0  0  0  0  0  0  0
   53.7600    5.8600   49.5900 H   0  0  0  0  0  0  0  0  0  0  0  0
   55.2700    5.3400   50.4100 H   0  0  0  0  0  0  0  0  0  0  0  0
   55.1200    7.4600   50.1400 C   0  0  0  0  0  0  0  0  0  0  0  0
   55.5800    7.4200   49.1300 H   0  0  0  0  0  0  0  0  0  0  0  0
   55.9600    7.5800   50.8600 H   0  0  0  0  0  0  0  0  0  0  0  0
   54.2600    8.7200   50.2800 C   0  0  0  0  0  0  0  0  0  0  0  0
   54.9700    9.5600   50.1300 H   0  0  0  0  0  0  0  0  0  0  0  0
   53.8500    8.7300   51.3100 H   0  0  0  0  0  0  0  0  0  0  0  0
   53.0700    8.8900   49.3300 C   0  0  0  0  0  0  0  0  0  0  0  0
   52.4900    9.7900   49.6700 H   0  0  0  0  0  0  0  0  0  0  0  0
   52.4000    8.0200   49.4800 H   0  0  0  0  0  0  0  0  0  0  0  0
   53.4700    9.0400   47.8600 C   0  0  0  0  0  0  0  0  0  0  0  0
   54.2700    8.3400   47.6000 H   0  0  0  0  0  0  0  0  0  0  0  0
   53.8400   10.0700   47.6500 H   0  0  0  0  0  0  0  0  0  0  0  0
   52.3300    8.7500   46.8900 C   0  0  0  0  0  0  0  0  0  0  0  0
   52.6000    9.1300   45.8800 H   0  0  0  0  0  0  0  0  0  0  0  0
   51.5300    9.3600   47.3200 H   0  0  0  0  0  0  0  0  0  0  0  0
   51.8600    7.2800   46.8100 C   0  0  0  0  0  0  0  0  0  0  0  0
   51.6100    6.9500   47.8400 H   0  0  0  0  0  0  0  0  0  0  0  0
   52.7300    6.7000   46.4600 H   0  0  0  0  0  0  0  0  0  0  0  0
   50.6500    6.9700   45.9000 C   0  0  0  0  0  0  0  0  0  0  0  0
   49.7900    7.3400   46.4500 H   0  0  0  0  0  0  0  0  0  0  0  0
   50.4300    5.8800   45.8800 H   0  0  0  0  0  0  0  0  0  0  0  0
   50.7100    7.5000   44.4700 C   0  0  0  0  0  0  0  0  0  0  0  0
   50.8700    8.5600   44.4200 H   0  0  0  0  0  0  0  0  0  0  0  0
   49.7500    7.3500   43.9300 H   0  0  0  0  0  0  0  0  0  0  0  0
   51.9300    7.0300   43.6800 C   0  0  0  0  0  0  0  0  0  0  0  0
   51.9000    5.9400   43.5800 H   0  0  0  0  0  0  0  0  0  0  0  0
   52.8600    7.3500   44.1900 H   0  0  0  0  0  0  0  0  0  0  0  0
   51.9400    7.5500   42.2800 C   0  0  0  0  0  0  0  0  0  0  0  0
   50.9600    7.2800   41.8100 H   0  0  0  0  0  0  0  0  0  0  0  0
   52.7300    7.1200   41.6500 H   0  0  0  0  0  0  0  0  0  0  0  0
   52.1200    8.6400   42.2500 H   0  0  0  0  0  0  0  0  0  0  0  0
  1  7  1  0  0  0  0
  1  3  1  0  0  0  0
  2  1  1  0  0  0  0
  4  8  1  6  0  0  0
  4  5  1  0  0  0  0
  4  7  1  0  0  0  0
  6  4  2  0  0  0  0
  8  9  1  0  0  0  0
  9 11  1  0  0  0  0
  9 10  1  0  0  0  0
 12 13  1  6  0  0  0
 12 14  1  0  0  0  0
 12  1  1  0  0  0  0
 14 15  1  0  0  0  0
 16 12  1  0  0  0  0
 16 17  1  0  0  0  0
 18 16  1  0  0  0  0
 19 23  1  6  0  0  0
 19 21  1  0  0  0  0
 20 19  2  0  0  0  0
 22 19  1  0  0  0  0
 22 16  1  0  0  0  0
 24 23  1  0  0  0  0
 25 24  1  0  0  0  0
 26 24  1  0  0  0  0
 27 28  1  1  0  0  0
 27 24  1  0  0  0  0
 27 29  1  0  0  0  0
 29 30  1  0  0  0  0
 30 32  1  0  0  0  0
 31 30  2  0  0  0  0
 32 33  1  0  0  0  0
 32 34  1  0  0  0  0
 35 27  1  0  0  0  0
 36 35  1  0  0  0  0
 37 35  1  0  0  0  0
 38 35  1  0  0  0  0
 39 38  1  0  0  0  0
 40 39  2  0  0  0  0
 41 43  1  0  0  0  0
 41 39  1  0  0  0  0
 41 42  1  0  0  0  0
 44 45  1  1  0  0  0
 44  9  1  0  0  0  0
 46 47  1  0  0  0  0
 46 44  1  0  0  0  0
 47 48  2  0  0  0  0
 49 47  1  0  0  0  0
 50 49  1  0  0  0  0
 51 49  1  0  0  0  0
 52 44  1  0  0  0  0
 52 54  1  0  0  0  0
 53 52  1  0  0  0  0
 55 52  1  0  0  0  0
 56 55  1  0  0  0  0
 57 56  2  0  0  0  0
 58 56  1  0  0  0  0
 58 59  1  0  0  0  0
 60 58  1  0  0  0  0
 61 62  1  0  0  0  0
 61 32  1  0  0  0  0
 63 61  1  0  0  0  0
 64 66  1  0  0  0  0
 64 61  1  0  0  0  0
 65 64  1  0  0  0  0
 67 68  1  0  0  0  0
 67 64  1  0  0  0  0
 69 67  1  0  0  0  0
 70 71  1  0  0  0  0
 70 67  1  0  0  0  0
 72 70  1  0  0  0  0
 73 74  1  0  0  0  0
 73 70  1  0  0  0  0
 75 73  1  0  0  0  0
 76 77  1  0  0  0  0
 76 73  1  0  0  0  0
 78 76  1  0  0  0  0
 79 80  1  1  0  0  0
 79 76  1  0  0  0  0
 81 84  1  0  0  0  0
 81 79  1  0  0  0  0
 82 81  1  0  0  0  0
 83 81  1  0  0  0  0
 84 85  1  6  0  0  0
 84 79  1  0  0  0  0
 86 84  1  0  0  0  0
 86 88  1  0  0  0  0
 87 86  1  0  0  0  0
 89 90  1  0  0  0  0
 89 86  1  0  0  0  0
 91 89  1  0  0  0  0
 92 94  1  0  0  0  0
 92 89  1  0  0  0  0
 93 92  1  0  0  0  0
 95 96  1  0  0  0  0
 95 92  1  0  0  0  0
 97 95  1  0  0  0  0
 98 99  1  0  0  0  0
 98100  1  0  0  0  0
101103  1  0  0  0  0
101104  1  0  0  0  0
102101  1  0  0  0  0
105107  1  0  0  0  0
105 41  1  0  0  0  0
106105  1  0  0  0  0
108105  1  0  0  0  0
108110  1  0  0  0  0
109108  1  0  0  0  0
111108  1  0  0  0  0
111113  1  0  0  0  0
112111  1  0  0  0  0
114111  1  0  0  0  0
115114  1  0  0  0  0
116114  1  0  0  0  0
117114  1  0  0  0  0
117119  1  0  0  0  0
118117  1  0  0  0  0
120122  1  0  0  0  0
120123  1  0  0  0  0
120117  1  0  0  0  0
121120  1  0  0  0  0
123124  1  0  0  0  0
123125  1  0  0  0  0
126129  1  0  0  0  0
126123  1  0  0  0  0
127126  1  0  0  0  0
128126  1  0  0  0  0
129131  1  0  0  0  0
129130  1  0  0  0  0
132134  1  0  0  0  0
132129  1  0  0  0  0
133132  1  0  0  0  0
135136  1  0  0  0  0
135132  1  0  0  0  0
137135  1  0  0  0  0
138139  1  0  0  0  0
138135  1  0  0  0  0
140138  1  0  0  0  0
141138  1  0  0  0  0
141142  1  0  0  0  0
143141  1  0  0  0  0
144141  1  0  0  0  0
144147  1  0  0  0  0
145144  1  0  0  0  0
146144  1  0  0  0  0
148150  1  0  0  0  0
148 49  1  0  0  0  0
148149  1  0  0  0  0
151153  1  0  0  0  0
151148  1  0  0  0  0
152151  1  0  0  0  0
154155  1  0  0  0  0
154151  1  0  0  0  0
156154  1  0  0  0  0
157159  1  0  0  0  0
157154  1  0  0  0  0
158157  1  0  0  0  0
160161  1  0  0  0  0
160157  1  0  0  0  0
162160  1  0  0  0  0
163165  1  0  0  0  0
163160  1  0  0  0  0
164163  1  0  0  0  0
166168  1  0  0  0  0
166163  1  0  0  0  0
167166  1  0  0  0  0
169171  1  0  0  0  0
169166  1  0  0  0  0
170169  1  0  0  0  0
172169  1  0  0  0  0
172173  1  0  0  0  0
174172  1  0  0  0  0
175176  1  0  0  0  0
175172  1  0  0  0  0
177175  1  0  0  0  0
178180  1  0  0  0  0
178175  1  0  0  0  0
179178  1  0  0  0  0
181183  1  0  0  0  0
181178  1  0  0  0  0
182181  1  0  0  0  0
184181  1  0  0  0  0
184186  1  0  0  0  0
185184  1  0  0  0  0
187184  1  0  0  0  0
187190  1  0  0  0  0
187188  1  0  0  0  0
189187  1  0  0  0  0
191 58  1  0  0  0  0
191193  1  0  0  0  0
192191  1  0  0  0  0
194191  1  0  0  0  0
194196  1  0  0  0  0
195194  1  0  0  0  0
197199  1  0  0  0  0
197194  1  0  0  0  0
198197  1  0  0  0  0
200197  1  0  0  0  0
201200  1  0  0  0  0
202200  1  0  0  0  0
203206  1  0  0  0  0
203200  1  0  0  0  0
203205  1  0  0  0  0
204203  1  0  0  0  0
206208  1  0  0  0  0
207206  1  0  0  0  0
209211  1  0  0  0  0
209210  1  0  0  0  0
209206  1  0  0  0  0
212209  1  0  0  0  0
213212  1  0  0  0  0
214212  1  0  0  0  0
215217  1  0  0  0  0
215212  1  0  0  0  0
216215  1  0  0  0  0
218215  1  0  0  0  0
218219  1  0  0  0  0
220218  1  0  0  0  0
221222  1  0  0  0  0
221218  1  0  0  0  0
223221  1  0  0  0  0
224221  1  0  0  0  0
225224  1  0  0  0  0
226224  1  0  0  0  0
227229  1  0  0  0  0
227224  1  0  0  0  0
228227  1  0  0  0  0
230227  1  0  0  0  0
231230  1  0  0  0  0
232230  1  0  0  0  0
233230  1  0  0  0  0
M  END
