SAPI2D
 OpenBabel02161614153D

150150  0  0  1  0  0  0  0  0999 V2000
    9.7700   76.4000   63.4400 C   0  0  2  0  0  0  0  0  0  0  0  0
    9.1400   76.6200   62.5600 H   0  0  0  0  0  0  0  0  0  0  0  0
   10.2700   77.6900   63.8300 O   0  0  0  0  0  0  0  0  0  0  0  0
   10.5600   77.6100   64.7500 H   0  0  0  0  0  0  0  0  0  0  0  0
    9.1500   75.5000   64.6800 C   0  0  2  0  0  0  0  0  0  0  0  0
    8.8600   74.7400   63.9000 H   0  0  0  0  0  0  0  0  0  0  0  0
    8.2000   74.8300   65.5500 O   0  0  0  0  0  0  0  0  0  0  0  0
    8.5900   73.2300   66.3500 P   0  0  0  0  0  0  0  0  0  0  0  0
    8.3800   72.1800   65.2400 O   0  0  0  0  0  0  0  0  0  0  0  0
    7.7000   73.1500   67.5700 O   0  0  0  0  0  0  0  0  0  0  0  0
    9.9700   72.9000   66.9000 O   0  0  0  0  0  0  0  0  0  0  0  0
   10.1900   75.3600   65.7300 C   0  0  1  0  0  0  0  0  0  0  0  0
   10.3200   76.4500   65.6000 H   0  0  0  0  0  0  0  0  0  0  0  0
   10.2100   75.8700   67.0800 O   0  0  0  0  0  0  0  0  0  0  0  0
   11.6500   75.8400   67.8300 P   0  0  2  0  0  0  0  0  0  0  0  0
   11.4300   77.3200   68.2200 O   0  0  0  0  0  0  0  0  0  0  0  0
   10.6200   77.1700   68.7100 H   0  0  0  0  0  0  0  0  0  0  0  0
   12.9000   75.8600   66.9700 O   0  0  0  0  0  0  0  0  0  0  0  0
   11.6100   75.1000   69.1400 O   0  0  0  0  0  0  0  0  0  0  0  0
   11.2900   74.5300   65.0800 C   0  0  2  0  0  0  0  0  0  0  0  0
   10.6700   73.7400   64.5600 H   0  0  0  0  0  0  0  0  0  0  0  0
   12.1100   73.6200   65.8000 O   0  0  0  0  0  0  0  0  0  0  0  0
   12.6300   74.1700   66.3900 H   0  0  0  0  0  0  0  0  0  0  0  0
   11.9400   75.2200   63.9900 C   0  0  1  0  0  0  0  0  0  0  0  0
   12.3500   76.1000   64.5300 H   0  0  0  0  0  0  0  0  0  0  0  0
   12.9600   74.3700   63.4600 O   0  0  0  0  0  0  0  0  0  0  0  0
   12.6100   73.4800   63.6200 H   0  0  0  0  0  0  0  0  0  0  0  0
   10.9400   75.5400   62.9100 C   0  0  2  0  0  0  0  0  0  0  0  0
   10.4600   74.5700   62.6500 H   0  0  0  0  0  0  0  0  0  0  0  0
   11.6700   75.1800   60.3600 P   0  0  2  0  0  0  0  0  0  0  0  0
   10.3100   75.4000   59.8500 O   0  0  0  0  0  0  0  0  0  0  0  0
   12.0400   73.7700   60.5700 O   0  0  0  0  0  0  0  0  0  0  0  0
   11.7000   76.0300   61.7900 O   0  0  0  0  0  0  0  0  0  0  0  0
   12.7800   75.9700   59.5400 O   0  0  0  0  0  0  0  0  0  0  0  0
   12.7000   77.3100   59.1000 C   0  0  0  0  0  0  0  0  0  0  0  0
   12.0400   77.9400   59.7500 H   0  0  0  0  0  0  0  0  0  0  0  0
   13.7300   77.7000   59.1600 H   0  0  0  0  0  0  0  0  0  0  0  0
   12.2400   77.4700   57.6000 C   0  0  2  0  0  0  0  0  0  0  0  0
   11.1300   77.3500   57.6200 H   0  0  0  0  0  0  0  0  0  0  0  0
   12.9200   76.5100   56.7500 O   0  0  0  0  0  0  0  0  0  0  0  0
   12.1100   75.6600   56.1200 C   0  0  0  0  0  0  0  0  0  0  0  0
   10.9200   75.5800   56.2800 O   0  0  0  0  0  0  0  0  0  0  0  0
   12.8600   74.8800   55.0400 C   0  0  0  0  0  0  0  0  0  0  0  0
   13.9000   75.2400   54.9500 H   0  0  0  0  0  0  0  0  0  0  0  0
   12.8500   73.8100   55.3200 H   0  0  0  0  0  0  0  0  0  0  0  0
   12.5600   78.9200   57.1100 C   0  0  0  0  0  0  0  0  0  0  0  0
   13.5500   79.2000   57.5400 H   0  0  0  0  0  0  0  0  0  0  0  0
   11.8100   79.6300   57.5400 H   0  0  0  0  0  0  0  0  0  0  0  0
   12.7000   79.0600   55.6800 O   0  0  0  0  0  0  0  0  0  0  0  0
   11.5500   79.1900   55.0100 C   0  0  0  0  0  0  0  0  0  0  0  0
   10.4600   79.2800   55.5100 O   0  0  0  0  0  0  0  0  0  0  0  0
   11.8800   79.3700   53.5300 C   0  0  0  0  0  0  0  0  0  0  0  0
   12.6900   78.7000   53.2200 H   0  0  0  0  0  0  0  0  0  0  0  0
   12.3500   80.3400   53.4800 H   0  0  0  0  0  0  0  0  0  0  0  0
   12.1000   74.9900   53.6900 C   0  0  0  0  0  0  0  0  0  0  0  0
   12.1400   76.0400   53.3500 H   0  0  0  0  0  0  0  0  0  0  0  0
   11.0300   74.7100   53.8500 H   0  0  0  0  0  0  0  0  0  0  0  0
   12.6400   74.0000   52.6400 C   0  0  0  0  0  0  0  0  0  0  0  0
   12.0100   73.9600   51.7200 H   0  0  0  0  0  0  0  0  0  0  0  0
   12.5500   72.9900   53.1000 H   0  0  0  0  0  0  0  0  0  0  0  0
   14.1000   74.2300   52.3800 C   0  0  0  0  0  0  0  0  0  0  0  0
   14.7200   73.6000   53.0200 H   0  0  0  0  0  0  0  0  0  0  0  0
   14.7400   75.1700   51.6400 C   0  0  0  0  0  0  0  0  0  0  0  0
   15.8300   75.1000   51.6800 H   0  0  0  0  0  0  0  0  0  0  0  0
   14.1700   76.3100   50.8200 C   0  0  0  0  0  0  0  0  0  0  0  0
   14.9900   76.9500   50.4400 H   0  0  0  0  0  0  0  0  0  0  0  0
   13.6400   76.9500   51.5500 H   0  0  0  0  0  0  0  0  0  0  0  0
   13.2100   75.9900   49.6900 C   0  0  0  0  0  0  0  0  0  0  0  0
   12.3200   75.4300   49.9900 H   0  0  0  0  0  0  0  0  0  0  0  0
   13.2200   76.3800   48.3900 C   0  0  0  0  0  0  0  0  0  0  0  0
   12.4800   75.9400   47.7200 H   0  0  0  0  0  0  0  0  0  0  0  0
   14.1700   77.2500   47.6300 C   0  0  0  0  0  0  0  0  0  0  0  0
   14.2900   76.8500   46.6000 H   0  0  0  0  0  0  0  0  0  0  0  0
   15.1900   77.2300   48.0900 H   0  0  0  0  0  0  0  0  0  0  0  0
   13.4800   78.5900   47.5100 C   0  0  0  0  0  0  0  0  0  0  0  0
   13.2900   79.1500   48.4500 H   0  0  0  0  0  0  0  0  0  0  0  0
   13.4100   79.3700   46.4200 C   0  0  0  0  0  0  0  0  0  0  0  0
   13.3800   80.4500   46.6400 H   0  0  0  0  0  0  0  0  0  0  0  0
   13.9800   79.1500   45.0400 C   0  0  0  0  0  0  0  0  0  0  0  0
   13.8000   78.2100   44.5200 H   0  0  0  0  0  0  0  0  0  0  0  0
   14.8600   78.5400   45.2200 H   0  0  0  0  0  0  0  0  0  0  0  0
   14.2200   80.4700   44.2300 C   0  0  0  0  0  0  0  0  0  0  0  0
   15.0700   81.1500   44.4700 H   0  0  0  0  0  0  0  0  0  0  0  0
   13.8800   80.6900   43.0200 C   0  0  0  0  0  0  0  0  0  0  0  0
   14.2400   81.6100   42.5200 H   0  0  0  0  0  0  0  0  0  0  0  0
   13.1700   79.6500   42.2400 C   0  0  0  0  0  0  0  0  0  0  0  0
   12.8000   78.8100   42.8500 H   0  0  0  0  0  0  0  0  0  0  0  0
   13.7500   79.2700   41.3600 H   0  0  0  0  0  0  0  0  0  0  0  0
   11.9200   80.3200   41.7800 C   0  0  0  0  0  0  0  0  0  0  0  0
   12.5200   81.0800   41.1900 H   0  0  0  0  0  0  0  0  0  0  0  0
   11.3300   80.9900   42.4000 H   0  0  0  0  0  0  0  0  0  0  0  0
   11.0500   79.2500   41.0200 C   0  0  0  0  0  0  0  0  0  0  0  0
   11.7600   78.6600   40.3900 H   0  0  0  0  0  0  0  0  0  0  0  0
   10.2800   79.6300   40.2800 H   0  0  0  0  0  0  0  0  0  0  0  0
   10.0500   78.4700   41.7000 C   0  0  0  0  0  0  0  0  0  0  0  0
   10.7100   78.0700   42.4700 H   0  0  0  0  0  0  0  0  0  0  0  0
    9.7000   77.8000   40.8700 H   0  0  0  0  0  0  0  0  0  0  0  0
    8.9700   79.3000   42.2900 C   0  0  0  0  0  0  0  0  0  0  0  0
    9.3900   80.0800   42.9700 H   0  0  0  0  0  0  0  0  0  0  0  0
    8.2200   78.7100   42.7800 H   0  0  0  0  0  0  0  0  0  0  0  0
    8.3000   79.6900   41.5100 H   0  0  0  0  0  0  0  0  0  0  0  0
   10.6600   79.3700   52.5900 C   0  0  0  0  0  0  0  0  0  0  0  0
   10.9100   79.8700   51.6200 H   0  0  0  0  0  0  0  0  0  0  0  0
    9.7500   79.8900   52.9600 H   0  0  0  0  0  0  0  0  0  0  0  0
   10.1400   78.0200   52.2900 C   0  0  0  0  0  0  0  0  0  0  0  0
    9.5800   77.6400   53.1900 H   0  0  0  0  0  0  0  0  0  0  0  0
   10.9600   77.3000   52.0600 H   0  0  0  0  0  0  0  0  0  0  0  0
    9.3500   78.3100   51.0400 C   0  0  0  0  0  0  0  0  0  0  0  0
    9.9000   78.1400   50.1000 H   0  0  0  0  0  0  0  0  0  0  0  0
    8.5800   79.1300   51.1000 H   0  0  0  0  0  0  0  0  0  0  0  0
    8.4300   77.3100   50.8500 C   0  0  0  0  0  0  0  0  0  0  0  0
    7.8400   77.5400   51.8200 H   0  0  0  0  0  0  0  0  0  0  0  0
    9.0200   76.3300   50.8300 H   0  0  0  0  0  0  0  0  0  0  0  0
    7.4400   77.4400   49.7300 C   0  0  0  0  0  0  0  0  0  0  0  0
    6.7900   78.3100   49.6500 H   0  0  0  0  0  0  0  0  0  0  0  0
    6.6200   77.3000   50.4500 H   0  0  0  0  0  0  0  0  0  0  0  0
    7.7100   76.4100   48.5000 C   0  0  0  0  0  0  0  0  0  0  0  0
    8.8000   76.5900   48.4900 H   0  0  0  0  0  0  0  0  0  0  0  0
    7.0900   76.8100   47.6800 H   0  0  0  0  0  0  0  0  0  0  0  0
    7.8900   74.7900   48.3900 C   0  0  0  0  0  0  0  0  0  0  0  0
    6.9100   74.3700   48.3900 H   0  0  0  0  0  0  0  0  0  0  0  0
    8.3900   74.2100   49.2100 H   0  0  0  0  0  0  0  0  0  0  0  0
    8.4800   74.1800   47.1800 C   0  0  0  0  0  0  0  0  0  0  0  0
    8.2700   73.0700   47.2000 H   0  0  0  0  0  0  0  0  0  0  0  0
    9.5600   74.3500   47.2700 H   0  0  0  0  0  0  0  0  0  0  0  0
    7.8700   74.9000   46.0000 C   0  0  0  0  0  0  0  0  0  0  0  0
    8.1600   75.9600   46.0000 H   0  0  0  0  0  0  0  0  0  0  0  0
    6.7600   74.9700   46.1000 H   0  0  0  0  0  0  0  0  0  0  0  0
    8.2300   74.1900   44.7300 C   0  0  0  0  0  0  0  0  0  0  0  0
    7.7900   73.1700   44.7100 H   0  0  0  0  0  0  0  0  0  0  0  0
    9.3400   74.0900   44.6800 H   0  0  0  0  0  0  0  0  0  0  0  0
    7.7500   74.9800   43.5400 C   0  0  0  0  0  0  0  0  0  0  0  0
    8.2000   75.9900   43.6100 H   0  0  0  0  0  0  0  0  0  0  0  0
    6.6600   75.1600   43.6100 H   0  0  0  0  0  0  0  0  0  0  0  0
    8.1700   74.3500   42.2200 C   0  0  0  0  0  0  0  0  0  0  0  0
    7.5700   73.4600   41.9300 H   0  0  0  0  0  0  0  0  0  0  0  0
    9.2300   74.0300   42.3100 H   0  0  0  0  0  0  0  0  0  0  0  0
    8.1100   75.3700   41.0900 C   0  0  0  0  0  0  0  0  0  0  0  0
    8.8400   76.1500   41.3600 H   0  0  0  0  0  0  0  0  0  0  0  0
    7.0900   75.8200   41.0800 H   0  0  0  0  0  0  0  0  0  0  0  0
    8.4800   74.7200   39.7700 C   0  0  0  0  0  0  0  0  0  0  0  0
    8.0400   73.7200   39.6300 H   0  0  0  0  0  0  0  0  0  0  0  0
    9.6000   74.6500   39.6800 H   0  0  0  0  0  0  0  0  0  0  0  0
    8.0200   75.5000   38.5800 C   0  0  0  0  0  0  0  0  0  0  0  0
    8.5900   76.4400   38.7700 H   0  0  0  0  0  0  0  0  0  0  0  0
    6.9400   75.7500   38.6100 H   0  0  0  0  0  0  0  0  0  0  0  0
    8.3900   74.7700   37.2700 C   0  0  0  0  0  0  0  0  0  0  0  0
    8.6000   75.3700   36.3800 H   0  0  0  0  0  0  0  0  0  0  0  0
    7.6600   74.0100   36.9600 H   0  0  0  0  0  0  0  0  0  0  0  0
    9.3600   74.3500   37.3500 H   0  0  0  0  0  0  0  0  0  0  0  0
  1  2  1  6  0  0  0
  1  3  1  0  0  0  0
  1  5  1  0  0  0  0
  3  4  1  0  0  0  0
  5  6  1  6  0  0  0
  5  7  1  0  0  0  0
  5 12  1  0  0  0  0
  7  8  1  0  0  0  0
  8 11  1  0  0  0  0
  8 10  1  0  0  0  0
  9  8  2  0  0  0  0
 12 13  1  6  0  0  0
 12 14  1  0  0  0  0
 14 15  1  0  0  0  0
 15 18  2  6  0  0  0
 15 16  1  0  0  0  0
 15 19  1  0  0  0  0
 16 17  1  0  0  0  0
 20 21  1  6  0  0  0
 20 12  1  0  0  0  0
 20 22  1  0  0  0  0
 22 23  1  0  0  0  0
 24 25  1  1  0  0  0
 24 20  1  0  0  0  0
 26 27  1  0  0  0  0
 26 24  1  0  0  0  0
 28 29  1  6  0  0  0
 28  1  1  0  0  0  0
 28 24  1  0  0  0  0
 30 34  1  6  0  0  0
 30 32  1  0  0  0  0
 30 33  1  0  0  0  0
 31 30  2  0  0  0  0
 33 28  1  0  0  0  0
 35 37  1  0  0  0  0
 35 34  1  0  0  0  0
 35 36  1  0  0  0  0
 38 39  1  6  0  0  0
 38 35  1  0  0  0  0
 40 38  1  0  0  0  0
 41 42  2  0  0  0  0
 41 40  1  0  0  0  0
 43 45  1  0  0  0  0
 43 41  1  0  0  0  0
 44 43  1  0  0  0  0
 46 47  1  0  0  0  0
 46 48  1  0  0  0  0
 46 38  1  0  0  0  0
 49 46  1  0  0  0  0
 50 51  2  0  0  0  0
 50 49  1  0  0  0  0
 52 50  1  0  0  0  0
 53 52  1  0  0  0  0
 54 52  1  0  0  0  0
 55 57  1  0  0  0  0
 55 43  1  0  0  0  0
 56 55  1  0  0  0  0
 58 60  1  0  0  0  0
 58 55  1  0  0  0  0
 59 58  1  0  0  0  0
 61 58  1  0  0  0  0
 61 62  1  0  0  0  0
 63 64  1  0  0  0  0
 63 61  2  0  0  0  0
 65 67  1  0  0  0  0
 65 63  1  0  0  0  0
 66 65  1  0  0  0  0
 68 69  1  0  0  0  0
 68 65  1  0  0  0  0
 70 68  2  0  0  0  0
 71 70  1  0  0  0  0
 72 74  1  0  0  0  0
 72 70  1  0  0  0  0
 73 72  1  0  0  0  0
 75 72  1  0  0  0  0
 75 76  1  0  0  0  0
 77 78  1  0  0  0  0
 77 75  1  0  0  0  0
 79 81  1  0  0  0  0
 79 77  1  0  0  0  0
 80 79  1  0  0  0  0
 82 83  1  0  0  0  0
 82 79  1  0  0  0  0
 84 82  1  0  0  0  0
 85 84  1  0  0  0  0
 86 87  1  0  0  0  0
 86 84  1  0  0  0  0
 88 86  1  0  0  0  0
 89 86  1  0  0  0  0
 89 91  1  0  0  0  0
 90 89  1  0  0  0  0
 92 95  1  0  0  0  0
 92 89  1  0  0  0  0
 93 92  1  0  0  0  0
 94 92  1  0  0  0  0
 95 98  1  0  0  0  0
 95 96  1  0  0  0  0
 97 95  1  0  0  0  0
 98100  1  0  0  0  0
 98 99  1  0  0  0  0
101 98  1  0  0  0  0
102104  1  0  0  0  0
102 52  1  0  0  0  0
103102  1  0  0  0  0
105102  1  0  0  0  0
105106  1  0  0  0  0
107105  1  0  0  0  0
108110  1  0  0  0  0
108105  1  0  0  0  0
109108  1  0  0  0  0
111108  1  0  0  0  0
111112  1  0  0  0  0
113111  1  0  0  0  0
114116  1  0  0  0  0
114111  1  0  0  0  0
115114  1  0  0  0  0
117114  1  0  0  0  0
118117  1  0  0  0  0
119117  1  0  0  0  0
120121  1  0  0  0  0
120117  1  0  0  0  0
120122  1  0  0  0  0
123124  1  0  0  0  0
123125  1  0  0  0  0
123120  1  0  0  0  0
126128  1  0  0  0  0
126123  1  0  0  0  0
127126  1  0  0  0  0
129126  1  0  0  0  0
130129  1  0  0  0  0
131129  1  0  0  0  0
132134  1  0  0  0  0
132133  1  0  0  0  0
132129  1  0  0  0  0
135137  1  0  0  0  0
135132  1  0  0  0  0
136135  1  0  0  0  0
138139  1  0  0  0  0
138135  1  0  0  0  0
140138  1  0  0  0  0
141138  1  0  0  0  0
142141  1  0  0  0  0
143141  1  0  0  0  0
144146  1  0  0  0  0
144145  1  0  0  0  0
144141  1  0  0  0  0
147150  1  0  0  0  0
147144  1  0  0  0  0
148147  1  0  0  0  0
149147  1  0  0  0  0
M  END
