SAPI2A
 OpenBabel02161614153D

150147  0  0  1  0  0  0  0  0999 V2000
    0.6200   42.4400   62.9100 C   0  0  2  0  0  0  0  0  0  0  0  0
    1.3500   42.2600   62.0600 H   0  0  0  0  0  0  0  0  0  0  0  0
   -0.5500   41.5800   62.8100 O   0  0  0  0  0  0  0  0  0  0  0  0
   -0.1500   40.7600   62.4400 H   0  0  0  0  0  0  0  0  0  0  0  0
    1.4800   42.8000   64.1700 C   0  0  2  0  0  0  0  0  0  0  0  0
    2.5400   43.1100   64.1200 H   0  0  0  0  0  0  0  0  0  0  0  0
    1.2800   41.5000   64.7500 O   0  0  0  0  0  0  0  0  0  0  0  0
   -0.4500   41.0700   65.7800 P   0  0  0  0  0  0  0  0  0  0  0  0
   -0.6500   39.6700   65.5300 O   0  0  0  0  0  0  0  0  0  0  0  0
   -1.3100   40.0100   64.8600 H   0  0  0  0  0  0  0  0  0  0  0  0
   -0.3400   41.4600   67.2400 O   0  0  0  0  0  0  0  0  0  0  0  0
   -1.8300   41.4100   65.3200 O   0  0  0  0  0  0  0  0  0  0  0  0
    0.8200   43.1600   65.3500 C   0  0  0  0  0  0  0  0  0  0  0  0
    1.0600   42.8100   66.2900 H   0  0  0  0  0  0  0  0  0  0  0  0
    1.8000   43.1400   66.4600 O   0  0  0  0  0  0  0  0  0  0  0  0
    1.3800   42.6000   67.2700 H   0  0  0  0  0  0  0  0  0  0  0  0
   -0.2600   44.3000   65.1400 C   0  0  0  0  0  0  0  0  0  0  0  0
    0.4200   45.0800   65.0400 H   0  0  0  0  0  0  0  0  0  0  0  0
   -1.4900   44.6600   65.9900 O   0  0  0  0  0  0  0  0  0  0  0  0
   -1.4800   46.3000   66.4700 P   0  0  0  0  0  0  0  0  0  0  0  0
   -2.7000   47.1100   66.9200 O   0  0  0  0  0  0  0  0  0  0  0  0
   -0.6600   46.8100   65.3500 O   0  0  0  0  0  0  0  0  0  0  0  0
   -0.7300   46.2900   67.7300 O   0  0  0  0  0  0  0  0  0  0  0  0
   -1.1300   43.8500   63.9200 C   0  0  1  0  0  0  0  0  0  0  0  0
   -1.7500   43.0200   64.0900 H   0  0  0  0  0  0  0  0  0  0  0  0
   -2.0600   44.7600   63.4400 O   0  0  0  0  0  0  0  0  0  0  0  0
   -1.5900   45.5800   63.5500 H   0  0  0  0  0  0  0  0  0  0  0  0
   -0.2400   43.5900   62.7200 C   0  0  2  0  0  0  0  0  0  0  0  0
    0.5000   44.2900   63.1400 H   0  0  0  0  0  0  0  0  0  0  0  0
   -0.3700   44.1900   59.9600 P   0  0  2  0  0  0  0  0  0  0  0  0
    1.0800   43.9900   59.8900 O   0  0  0  0  0  0  0  0  0  0  0  0
   -0.9100   45.5300   60.1200 O   0  0  0  0  0  0  0  0  0  0  0  0
   -0.6500   43.5000   61.3200 O   0  0  0  0  0  0  0  0  0  0  0  0
   -1.0700   43.3600   58.8900 O   0  0  0  0  0  0  0  0  0  0  0  0
   -2.3400   42.8200   59.1100 C   0  0  0  0  0  0  0  0  0  0  0  0
   -2.2100   41.7400   59.2900 H   0  0  0  0  0  0  0  0  0  0  0  0
   -2.8600   43.2500   60.0100 H   0  0  0  0  0  0  0  0  0  0  0  0
   -3.1500   43.1600   57.8400 C   0  0  2  0  0  0  0  0  0  0  0  0
   -4.0300   42.4800   57.8600 H   0  0  0  0  0  0  0  0  0  0  0  0
   -2.3900   42.9900   56.6200 O   0  0  0  0  0  0  0  0  0  0  0  0
   -1.8600   41.8100   56.3800 C   0  0  0  0  0  0  0  0  0  0  0  0
   -2.2300   40.7800   56.8700 O   0  0  0  0  0  0  0  0  0  0  0  0
   -0.7100   41.8000   55.3700 C   0  0  0  0  0  0  0  0  0  0  0  0
    0.2000   41.9400   55.9900 H   0  0  0  0  0  0  0  0  0  0  0  0
   -0.6300   40.8200   54.8500 H   0  0  0  0  0  0  0  0  0  0  0  0
   -3.5900   44.6700   57.8300 C   0  0  0  0  0  0  0  0  0  0  0  0
   -4.1600   44.9400   58.7400 H   0  0  0  0  0  0  0  0  0  0  0  0
   -4.3100   44.8100   57.0000 H   0  0  0  0  0  0  0  0  0  0  0  0
   -2.4300   45.5500   57.7400 O   0  0  0  0  0  0  0  0  0  0  0  0
   -2.3600   46.3100   56.6600 C   0  0  0  0  0  0  0  0  0  0  0  0
   -3.2000   46.3800   55.7900 O   0  0  0  0  0  0  0  0  0  0  0  0
   -1.0300   47.0800   56.5900 C   0  0  0  0  0  0  0  0  0  0  0  0
   -0.5400   47.1000   57.5800 H   0  0  0  0  0  0  0  0  0  0  0  0
   -1.2300   48.1300   56.2800 H   0  0  0  0  0  0  0  0  0  0  0  0
   -0.8100   42.9100   54.3300 C   0  0  0  0  0  0  0  0  0  0  0  0
    0.1800   43.0500   53.8500 H   0  0  0  0  0  0  0  0  0  0  0  0
   -1.0400   43.8300   54.9000 H   0  0  0  0  0  0  0  0  0  0  0  0
   -1.8800   42.7300   53.2300 C   0  0  0  0  0  0  0  0  0  0  0  0
   -1.9300   43.6700   52.6400 H   0  0  0  0  0  0  0  0  0  0  0  0
   -2.8500   42.6400   53.7700 H   0  0  0  0  0  0  0  0  0  0  0  0
   -1.7700   41.5400   52.3000 C   0  0  0  0  0  0  0  0  0  0  0  0
   -1.7800   40.5800   52.8300 H   0  0  0  0  0  0  0  0  0  0  0  0
   -1.7300   41.5700   50.9500 C   0  0  0  0  0  0  0  0  0  0  0  0
   -1.6700   40.6100   50.4100 H   0  0  0  0  0  0  0  0  0  0  0  0
   -1.7800   42.8200   50.0800 C   0  0  0  0  0  0  0  0  0  0  0  0
   -0.7300   43.0700   49.8000 H   0  0  0  0  0  0  0  0  0  0  0  0
   -2.1700   43.6800   50.6500 H   0  0  0  0  0  0  0  0  0  0  0  0
   -2.5600   42.8600   48.7900 C   0  0  0  0  0  0  0  0  0  0  0  0
   -3.4500   43.5200   48.7700 H   0  0  0  0  0  0  0  0  0  0  0  0
   -2.1900   42.2900   47.6400 C   0  0  0  0  0  0  0  0  0  0  0  0
   -2.8300   42.4000   46.7500 H   0  0  0  0  0  0  0  0  0  0  0  0
   -0.9400   41.5000   47.4400 C   0  0  0  0  0  0  0  0  0  0  0  0
   -0.2200   41.4100   48.2800 H   0  0  0  0  0  0  0  0  0  0  0  0
   -0.3800   41.9600   46.6000 H   0  0  0  0  0  0  0  0  0  0  0  0
   -1.2300   40.1000   47.1400 C   0  0  0  0  0  0  0  0  0  0  0  0
   -1.7200   39.4400   47.8700 H   0  0  0  0  0  0  0  0  0  0  0  0
   -1.0700   39.6200   45.9600 C   0  0  0  0  0  0  0  0  0  0  0  0
   -1.0700   38.5500   46.0400 H   0  0  0  0  0  0  0  0  0  0  0  0
   -0.6100   40.2400   44.6700 C   0  0  0  0  0  0  0  0  0  0  0  0
    0.1400   41.0200   44.7300 H   0  0  0  0  0  0  0  0  0  0  0  0
   -1.5200   40.5300   44.0800 H   0  0  0  0  0  0  0  0  0  0  0  0
    0.1300   39.3600   43.7900 C   0  0  0  0  0  0  0  0  0  0  0  0
    0.2300   38.2900   44.1300 H   0  0  0  0  0  0  0  0  0  0  0  0
    0.3600   39.8000   42.5400 C   0  0  0  0  0  0  0  0  0  0  0  0
   -0.2300   39.4100   41.6900 H   0  0  0  0  0  0  0  0  0  0  0  0
    0.2200   40.8100   41.5900 C   0  0  0  0  0  0  0  0  0  0  0  0
    1.3200   40.7700   41.4900 H   0  0  0  0  0  0  0  0  0  0  0  0
   -0.3100   41.4500   42.2700 H   0  0  0  0  0  0  0  0  0  0  0  0
   -0.3300   40.6800   40.1500 C   0  0  0  0  0  0  0  0  0  0  0  0
   -1.4000   40.3400   40.1100 H   0  0  0  0  0  0  0  0  0  0  0  0
    0.2400   39.9100   39.5800 H   0  0  0  0  0  0  0  0  0  0  0  0
   -0.0900   42.0900   39.6400 C   0  0  0  0  0  0  0  0  0  0  0  0
   -0.2500   42.0800   38.5500 H   0  0  0  0  0  0  0  0  0  0  0  0
    0.9900   42.3200   39.8500 H   0  0  0  0  0  0  0  0  0  0  0  0
   -0.9600   43.1600   40.3700 C   0  0  0  0  0  0  0  0  0  0  0  0
   -0.6000   43.2700   41.4000 H   0  0  0  0  0  0  0  0  0  0  0  0
   -2.0200   42.8100   40.3200 H   0  0  0  0  0  0  0  0  0  0  0  0
   -0.8800   44.5900   39.8700 C   0  0  0  0  0  0  0  0  0  0  0  0
   -0.7800   44.2800   38.8800 H   0  0  0  0  0  0  0  0  0  0  0  0
    0.0600   45.1300   39.7200 H   0  0  0  0  0  0  0  0  0  0  0  0
   -1.7800   45.2300   39.9900 H   0  0  0  0  0  0  0  0  0  0  0  0
   -0.0800   46.4400   55.5500 C   0  0  0  0  0  0  0  0  0  0  0  0
    0.1500   45.4000   55.8600 H   0  0  0  0  0  0  0  0  0  0  0  0
    0.8800   47.0100   55.5400 H   0  0  0  0  0  0  0  0  0  0  0  0
   -0.6100   46.4400   54.1100 C   0  0  0  0  0  0  0  0  0  0  0  0
   -1.0000   47.4500   53.8900 H   0  0  0  0  0  0  0  0  0  0  0  0
   -1.4600   45.7200   54.0400 H   0  0  0  0  0  0  0  0  0  0  0  0
    0.4700   46.1300   53.0600 C   0  0  0  0  0  0  0  0  0  0  0  0
    0.9100   45.1200   53.2200 H   0  0  0  0  0  0  0  0  0  0  0  0
    1.2900   46.8700   53.1400 H   0  0  0  0  0  0  0  0  0  0  0  0
   -0.0300   46.1700   51.6000 C   0  0  0  0  0  0  0  0  0  0  0  0
   -0.9000   45.4900   51.5200 H   0  0  0  0  0  0  0  0  0  0  0  0
    0.8000   45.7400   50.9900 H   0  0  0  0  0  0  0  0  0  0  0  0
   -0.3500   47.5600   51.0100 C   0  0  0  0  0  0  0  0  0  0  0  0
    0.4200   48.2900   51.3500 H   0  0  0  0  0  0  0  0  0  0  0  0
   -1.3200   47.9300   51.4000 H   0  0  0  0  0  0  0  0  0  0  0  0
   -0.4100   47.5600   49.4600 C   0  0  0  0  0  0  0  0  0  0  0  0
    0.6100   47.4600   49.0200 H   0  0  0  0  0  0  0  0  0  0  0  0
   -0.8200   48.5400   49.1600 H   0  0  0  0  0  0  0  0  0  0  0  0
   -1.3200   46.4800   48.8600 C   0  0  0  0  0  0  0  0  0  0  0  0
   -2.3600   46.7200   49.2000 H   0  0  0  0  0  0  0  0  0  0  0  0
   -1.0700   45.4700   49.2500 H   0  0  0  0  0  0  0  0  0  0  0  0
   -1.2800   46.3700   47.3200 C   0  0  0  0  0  0  0  0  0  0  0  0
   -1.3800   47.3900   46.8900 H   0  0  0  0  0  0  0  0  0  0  0  0
   -2.1500   45.7500   47.0100 H   0  0  0  0  0  0  0  0  0  0  0  0
   -0.0000   45.7500   46.7100 C   0  0  0  0  0  0  0  0  0  0  0  0
    0.3400   44.8400   47.2500 H   0  0  0  0  0  0  0  0  0  0  0  0
    0.8100   46.5100   46.8200 H   0  0  0  0  0  0  0  0  0  0  0  0
   -0.1500   45.4000   45.2200 C   0  0  0  0  0  0  0  0  0  0  0  0
   -1.2000   45.2000   44.9400 H   0  0  0  0  0  0  0  0  0  0  0  0
    0.4100   44.4600   44.9700 H   0  0  0  0  0  0  0  0  0  0  0  0
    0.4100   46.4700   44.3100 C   0  0  0  0  0  0  0  0  0  0  0  0
    0.1500   47.4900   44.6800 H   0  0  0  0  0  0  0  0  0  0  0  0
   -0.0500   46.3800   43.3000 H   0  0  0  0  0  0  0  0  0  0  0  0
    1.8900   46.1500   44.1800 C   0  0  0  0  0  0  0  0  0  0  0  0
    2.1500   45.1100   43.9300 H   0  0  0  0  0  0  0  0  0  0  0  0
    2.5200   46.5400   45.0200 H   0  0  0  0  0  0  0  0  0  0  0  0
    2.4100   46.7000   42.9500 C   0  0  0  0  0  0  0  0  0  0  0  0
    3.5200   46.8000   43.1300 H   0  0  0  0  0  0  0  0  0  0  0  0
    1.8600   47.6600   43.1100 H   0  0  0  0  0  0  0  0  0  0  0  0
    2.1300   46.2100   41.4900 C   0  0  0  0  0  0  0  0  0  0  0  0
    2.1700   46.9200   40.6000 H   0  0  0  0  0  0  0  0  0  0  0  0
    1.0700   45.9400   41.4800 H   0  0  0  0  0  0  0  0  0  0  0  0
    3.1300   45.1600   41.0400 C   0  0  0  0  0  0  0  0  0  0  0  0
    2.7900   44.8300   40.0500 H   0  0  0  0  0  0  0  0  0  0  0  0
    3.0200   44.4300   41.8600 H   0  0  0  0  0  0  0  0  0  0  0  0
    4.6200   45.4500   40.9800 C   0  0  0  0  0  0  0  0  0  0  0  0
    4.8800   45.8100   42.0000 H   0  0  0  0  0  0  0  0  0  0  0  0
    4.8800   46.1500   40.1800 H   0  0  0  0  0  0  0  0  0  0  0  0
    5.3000   44.6200   40.8200 H   0  0  0  0  0  0  0  0  0  0  0  0
  1  2  1  6  0  0  0
  1  5  1  0  0  0  0
  3  1  1  0  0  0  0
  4  3  1  0  0  0  0
  5  6  1  6  0  0  0
  5  7  1  0  0  0  0
  5 13  1  0  0  0  0
  8 11  1  0  0  0  0
  9  8  1  0  0  0  0
 10  9  1  0  0  0  0
 12  8  1  0  0  0  0
 14 15  1  0  0  0  0
 15 16  1  0  0  0  0
 17 19  1  0  0  0  0
 18 17  1  0  0  0  0
 19 20  1  0  0  0  0
 20 21  1  0  0  0  0
 20 23  1  0  0  0  0
 22 20  2  0  0  0  0
 24 25  1  1  0  0  0
 24 17  1  0  0  0  0
 26 27  1  0  0  0  0
 26 24  1  0  0  0  0
 28  1  1  0  0  0  0
 28 29  1  1  0  0  0
 28 24  1  0  0  0  0
 30 34  1  6  0  0  0
 30 32  1  0  0  0  0
 30 33  1  0  0  0  0
 31 30  2  0  0  0  0
 33 28  1  0  0  0  0
 34 35  1  0  0  0  0
 35 36  1  0  0  0  0
 35 37  1  0  0  0  0
 38 39  1  6  0  0  0
 38 35  1  0  0  0  0
 40 38  1  0  0  0  0
 41 40  1  0  0  0  0
 41 42  2  0  0  0  0
 43 44  1  0  0  0  0
 43 41  1  0  0  0  0
 45 43  1  0  0  0  0
 46 38  1  0  0  0  0
 46 47  1  0  0  0  0
 48 46  1  0  0  0  0
 49 46  1  0  0  0  0
 50 49  1  0  0  0  0
 51 50  2  0  0  0  0
 52 50  1  0  0  0  0
 52 53  1  0  0  0  0
 54 52  1  0  0  0  0
 55 57  1  0  0  0  0
 55 43  1  0  0  0  0
 56 55  1  0  0  0  0
 58 60  1  0  0  0  0
 58 55  1  0  0  0  0
 59 58  1  0  0  0  0
 61 62  1  0  0  0  0
 61 58  1  0  0  0  0
 63 61  2  0  0  0  0
 64 63  1  0  0  0  0
 65 67  1  0  0  0  0
 65 63  1  0  0  0  0
 66 65  1  0  0  0  0
 68 65  1  0  0  0  0
 69 68  1  0  0  0  0
 70 68  2  0  0  0  0
 71 70  1  0  0  0  0
 72 70  1  0  0  0  0
 72 73  1  0  0  0  0
 74 72  1  0  0  0  0
 75 72  1  0  0  0  0
 75 76  1  0  0  0  0
 77 78  1  0  0  0  0
 77 75  1  0  0  0  0
 79 80  1  0  0  0  0
 79 77  1  0  0  0  0
 81 79  1  0  0  0  0
 82 83  1  0  0  0  0
 82 79  1  0  0  0  0
 84 82  1  0  0  0  0
 85 84  1  0  0  0  0
 86 88  1  0  0  0  0
 86 84  1  0  0  0  0
 87 86  1  0  0  0  0
 89 86  1  0  0  0  0
 90 89  1  0  0  0  0
 91 89  1  0  0  0  0
 92 94  1  0  0  0  0
 92 89  1  0  0  0  0
 92 95  1  0  0  0  0
 93 92  1  0  0  0  0
 95 96  1  0  0  0  0
 97 95  1  0  0  0  0
 98101  1  0  0  0  0
 98 95  1  0  0  0  0
 99 98  1  0  0  0  0
100 98  1  0  0  0  0
102103  1  0  0  0  0
102 52  1  0  0  0  0
104102  1  0  0  0  0
105102  1  0  0  0  0
106105  1  0  0  0  0
107105  1  0  0  0  0
108110  1  0  0  0  0
108109  1  0  0  0  0
108105  1  0  0  0  0
111108  1  0  0  0  0
112111  1  0  0  0  0
113111  1  0  0  0  0
114115  1  0  0  0  0
114116  1  0  0  0  0
114111  1  0  0  0  0
117114  1  0  0  0  0
118117  1  0  0  0  0
119117  1  0  0  0  0
120121  1  0  0  0  0
120122  1  0  0  0  0
120117  1  0  0  0  0
123120  1  0  0  0  0
124123  1  0  0  0  0
125123  1  0  0  0  0
126128  1  0  0  0  0
126127  1  0  0  0  0
126123  1  0  0  0  0
129126  1  0  0  0  0
130129  1  0  0  0  0
131129  1  0  0  0  0
132133  1  0  0  0  0
132129  1  0  0  0  0
134132  1  0  0  0  0
135132  1  0  0  0  0
135137  1  0  0  0  0
136135  1  0  0  0  0
138140  1  0  0  0  0
138139  1  0  0  0  0
138135  1  0  0  0  0
141138  1  0  0  0  0
142141  1  0  0  0  0
143141  1  0  0  0  0
144141  1  0  0  0  0
144146  1  0  0  0  0
145144  1  0  0  0  0
147144  1  0  0  0  0
147148  1  0  0  0  0
149147  1  0  0  0  0
150147  1  0  0  0  0
M  END
