DYPE
 OpenBabel02161614153D

117113  0  0  1  0  0  0  0  0999 V2000
   13.2900   26.5800   61.2800 N   0  0  0  0  0  0  0  0  0  0  0  0
   13.2300   27.5500   60.9000 H   0  0  0  0  0  0  0  0  0  0  0  0
   12.4100   26.1000   60.9600 H   0  0  0  0  0  0  0  0  0  0  0  0
   13.3100   26.6500   62.3300 H   0  0  0  0  0  0  0  0  0  0  0  0
   14.5500   25.9100   60.7900 C   0  0  0  0  0  0  0  0  0  0  0  0
   14.6200   24.9100   61.2600 H   0  0  0  0  0  0  0  0  0  0  0  0
   15.4100   26.5000   61.1600 H   0  0  0  0  0  0  0  0  0  0  0  0
   14.6400   25.7800   59.2500 C   0  0  0  0  0  0  0  0  0  0  0  0
   15.5900   25.2300   58.9800 H   0  0  0  0  0  0  0  0  0  0  0  0
   14.7600   26.8000   58.8100 H   0  0  0  0  0  0  0  0  0  0  0  0
   12.7800   25.5500   57.3900 P   0  0  1  0  0  0  0  0  0  0  0  0
   12.5700   27.0000   57.5700 O   0  0  0  0  0  0  0  0  0  0  0  0
   11.6100   24.6700   57.1800 O   0  0  0  0  0  0  0  0  0  0  0  0
   13.8900   25.2600   56.3000 O   0  0  0  0  0  0  0  0  0  0  0  0
   13.5100   25.0800   58.7300 O   0  0  0  0  0  0  0  0  0  0  0  0
   14.7300   26.2900   55.8000 C   0  0  0  0  0  0  0  0  0  0  0  0
   15.7000   25.8200   55.5100 H   0  0  0  0  0  0  0  0  0  0  0  0
   14.9700   27.0500   56.5800 H   0  0  0  0  0  0  0  0  0  0  0  0
   14.1400   27.0100   54.5500 C   0  0  2  0  0  0  0  0  0  0  0  0
   13.2700   27.6300   54.8500 H   0  0  0  0  0  0  0  0  0  0  0  0
   13.8000   26.0200   53.5600 O   0  0  0  0  0  0  0  0  0  0  0  0
   12.5300   25.8000   53.3400 C   0  0  0  0  0  0  0  0  0  0  0  0
   11.5900   26.5000   53.6300 O   0  0  0  0  0  0  0  0  0  0  0  0
   12.4200   24.4600   52.6500 C   0  0  0  0  0  0  0  0  0  0  0  0
   12.0000   23.7500   53.4000 H   0  0  0  0  0  0  0  0  0  0  0  0
   13.4300   24.1200   52.3300 H   0  0  0  0  0  0  0  0  0  0  0  0
   15.2300   27.9400   53.9600 C   0  0  0  0  0  0  0  0  0  0  0  0
   16.1300   27.3100   53.7500 H   0  0  0  0  0  0  0  0  0  0  0  0
   15.5200   28.6700   54.7500 H   0  0  0  0  0  0  0  0  0  0  0  0
   14.8300   28.5700   52.7400 O   0  0  0  0  0  0  0  0  0  0  0  0
   14.1800   29.7000   52.9500 C   0  0  0  0  0  0  0  0  0  0  0  0
   13.8700   30.1800   54.0100 O   0  0  0  0  0  0  0  0  0  0  0  0
   13.8900   30.3300   51.6100 C   0  0  0  0  0  0  0  0  0  0  0  0
   14.7700   30.8300   51.1800 H   0  0  0  0  0  0  0  0  0  0  0  0
   13.6200   29.4800   50.9200 H   0  0  0  0  0  0  0  0  0  0  0  0
   11.4600   24.4800   51.4700 C   0  0  0  0  0  0  0  0  0  0  0  0
   10.4500   24.8400   51.7600 H   0  0  0  0  0  0  0  0  0  0  0  0
   11.4100   23.4500   51.0700 H   0  0  0  0  0  0  0  0  0  0  0  0
   11.9600   25.2100   50.2700 C   0  0  0  0  0  0  0  0  0  0  0  0
   12.9500   24.8200   49.9300 H   0  0  0  0  0  0  0  0  0  0  0  0
   12.1200   26.2600   50.6100 H   0  0  0  0  0  0  0  0  0  0  0  0
   10.9100   25.0800   49.1600 C   0  0  0  0  0  0  0  0  0  0  0  0
   10.0500   25.7300   49.4100 H   0  0  0  0  0  0  0  0  0  0  0  0
   10.4800   24.1000   48.9900 H   0  0  0  0  0  0  0  0  0  0  0  0
   11.4900   25.3800   47.8300 C   0  0  0  0  0  0  0  0  0  0  0  0
   10.7000   25.6200   47.0500 H   0  0  0  0  0  0  0  0  0  0  0  0
   12.1900   24.6600   47.3800 H   0  0  0  0  0  0  0  0  0  0  0  0
   12.3500   26.5300   48.1800 C   0  0  0  0  0  0  0  0  0  0  0  0
   12.6100   27.0900   49.0800 H   0  0  0  0  0  0  0  0  0  0  0  0
   11.4100   27.1100   47.9900 H   0  0  0  0  0  0  0  0  0  0  0  0
   13.6000   26.7300   47.3500 C   0  0  0  0  0  0  0  0  0  0  0  0
   14.0300   27.7500   47.3300 H   0  0  0  0  0  0  0  0  0  0  0  0
   12.8700   26.5800   46.7000 H   0  0  0  0  0  0  0  0  0  0  0  0
   14.5000   25.8600   46.6300 C   0  0  0  0  0  0  0  0  0  0  0  0
   15.2100   25.7200   47.4000 H   0  0  0  0  0  0  0  0  0  0  0  0
   14.7500   25.4900   45.3200 C   0  0  0  0  0  0  0  0  0  0  0  0
   15.6100   24.8800   45.2400 H   0  0  0  0  0  0  0  0  0  0  0  0
   14.1400   25.7100   43.9400 C   0  0  0  0  0  0  0  0  0  0  0  0
   14.7200   26.5200   43.5000 H   0  0  0  0  0  0  0  0  0  0  0  0
   13.2300   26.1200   43.8400 H   0  0  0  0  0  0  0  0  0  0  0  0
   13.7700   24.5500   43.0000 C   0  0  0  0  0  0  0  0  0  0  0  0
   13.4100   23.7600   43.7000 H   0  0  0  0  0  0  0  0  0  0  0  0
   14.7000   24.2600   42.4800 H   0  0  0  0  0  0  0  0  0  0  0  0
   12.5900   24.7800   42.0000 C   0  0  0  0  0  0  0  0  0  0  0  0
   11.6700   24.9700   42.5700 H   0  0  0  0  0  0  0  0  0  0  0  0
   12.4200   23.8600   41.4100 H   0  0  0  0  0  0  0  0  0  0  0  0
   12.6500   25.9300   41.0200 C   0  0  0  0  0  0  0  0  0  0  0  0
   12.8700   26.8200   41.6000 H   0  0  0  0  0  0  0  0  0  0  0  0
   11.6900   26.2400   40.6200 H   0  0  0  0  0  0  0  0  0  0  0  0
   13.5100   25.6700   39.8000 C   0  0  0  0  0  0  0  0  0  0  0  0
   13.3100   24.7700   39.2000 H   0  0  0  0  0  0  0  0  0  0  0  0
   14.4800   25.4300   40.3000 H   0  0  0  0  0  0  0  0  0  0  0  0
   13.4800   26.9300   38.8900 C   0  0  0  0  0  0  0  0  0  0  0  0
   13.6600   27.7800   39.5600 H   0  0  0  0  0  0  0  0  0  0  0  0
   14.2600   26.9100   38.0900 H   0  0  0  0  0  0  0  0  0  0  0  0
   12.5900   27.2300   38.4000 H   0  0  0  0  0  0  0  0  0  0  0  0
   12.7300   31.3300   51.7900 C   0  0  0  0  0  0  0  0  0  0  0  0
   12.9700   32.3600   52.1100 H   0  0  0  0  0  0  0  0  0  0  0  0
   12.0800   30.9300   52.5900 H   0  0  0  0  0  0  0  0  0  0  0  0
   11.9100   31.4000   50.5300 C   0  0  0  0  0  0  0  0  0  0  0  0
   11.1200   32.1900   50.4500 H   0  0  0  0  0  0  0  0  0  0  0  0
   11.4900   30.4300   50.5900 H   0  0  0  0  0  0  0  0  0  0  0  0
   12.6300   31.1700   49.2600 C   0  0  0  0  0  0  0  0  0  0  0  0
   13.1700   30.2300   49.0800 H   0  0  0  0  0  0  0  0  0  0  0  0
   13.5000   31.6700   49.6400 H   0  0  0  0  0  0  0  0  0  0  0  0
   11.8500   31.7200   48.0300 C   0  0  0  0  0  0  0  0  0  0  0  0
   10.7900   32.0600   48.1100 H   0  0  0  0  0  0  0  0  0  0  0  0
   11.6500   30.7700   47.9500 H   0  0  0  0  0  0  0  0  0  0  0  0
   12.4300   31.5900   46.5900 C   0  0  0  0  0  0  0  0  0  0  0  0
   11.7300   31.4800   45.7600 H   0  0  0  0  0  0  0  0  0  0  0  0
   12.1000   32.6200   46.5400 H   0  0  0  0  0  0  0  0  0  0  0  0
   14.0600   30.9900   46.3600 C   0  0  0  0  0  0  0  0  0  0  0  0
   13.8300   30.2300   45.6700 H   0  0  0  0  0  0  0  0  0  0  0  0
   14.3700   30.6000   47.3300 H   0  0  0  0  0  0  0  0  0  0  0  0
   15.4600   31.2300   45.6600 C   0  0  0  0  0  0  0  0  0  0  0  0
   15.9600   32.1800   45.7300 H   0  0  0  0  0  0  0  0  0  0  0  0
   16.0100   30.7500   44.5600 C   0  0  0  0  0  0  0  0  0  0  0  0
   16.5100   31.4500   43.8600 H   0  0  0  0  0  0  0  0  0  0  0  0
   15.2500   29.8500   43.8300 C   0  0  0  0  0  0  0  0  0  0  0  0
   15.3300   28.8600   44.3100 H   0  0  0  0  0  0  0  0  0  0  0  0
   15.9200   29.8700   42.9000 H   0  0  0  0  0  0  0  0  0  0  0  0
   13.8100   30.2100   43.3300 C   0  0  0  0  0  0  0  0  0  0  0  0
   13.7600   29.0900   43.3100 H   0  0  0  0  0  0  0  0  0  0  0  0
   14.2400   30.4600   42.3200 H   0  0  0  0  0  0  0  0  0  0  0  0
   11.8600   30.7300   43.5900 C   0  0  0  0  0  0  0  0  0  0  0  0
   12.4500   30.3400   44.2000 H   0  0  0  0  0  0  0  0  0  0  0  0
   12.1000   31.7700   43.4600 H   0  0  0  0  0  0  0  0  0  0  0  0
   10.1000   29.8100   42.1900 C   0  0  0  0  0  0  0  0  0  0  0  0
   10.0300   28.7300   41.8000 H   0  0  0  0  0  0  0  0  0  0  0  0
    9.2300   30.1700   42.5300 H   0  0  0  0  0  0  0  0  0  0  0  0
   10.4900   29.3900   40.3900 C   0  0  0  0  0  0  0  0  0  0  0  0
   11.4900   29.0200   39.8600 H   0  0  0  0  0  0  0  0  0  0  0  0
   11.2200   30.0400   39.8600 H   0  0  0  0  0  0  0  0  0  0  0  0
    9.7700   29.9000   39.6800 C   0  0  0  0  0  0  0  0  0  0  0  0
    8.9200   30.2900   40.2200 H   0  0  0  0  0  0  0  0  0  0  0  0
    9.6800   28.8600   39.6100 H   0  0  0  0  0  0  0  0  0  0  0  0
    9.9600   30.0200   38.5900 H   0  0  0  0  0  0  0  0  0  0  0  0
  1  4  1  0  0  0  0
  2  1  1  0  0  0  0
  3  1  1  0  0  0  0
  5  7  1  0  0  0  0
  5  6  1  0  0  0  0
  5  1  1  0  0  0  0
  8  5  1  0  0  0  0
  9  8  1  0  0  0  0
 10  8  1  0  0  0  0
 11 14  1  6  0  0  0
 11 12  1  0  0  0  0
 11 15  1  0  0  0  0
 13 11  2  0  0  0  0
 15  8  1  0  0  0  0
 16 14  1  0  0  0  0
 16 18  1  0  0  0  0
 17 16  1  0  0  0  0
 19 20  1  1  0  0  0
 19 16  1  0  0  0  0
 21 19  1  0  0  0  0
 22 21  1  0  0  0  0
 22 23  2  0  0  0  0
 24 22  1  0  0  0  0
 24 25  1  0  0  0  0
 26 24  1  0  0  0  0
 27 19  1  0  0  0  0
 27 29  1  0  0  0  0
 28 27  1  0  0  0  0
 30 31  1  0  0  0  0
 30 27  1  0  0  0  0
 31 32  2  0  0  0  0
 33 77  1  0  0  0  0
 33 31  1  0  0  0  0
 34 33  1  0  0  0  0
 35 33  1  0  0  0  0
 36 37  1  0  0  0  0
 36 24  1  0  0  0  0
 38 36  1  0  0  0  0
 39 41  1  0  0  0  0
 39 36  1  0  0  0  0
 40 39  1  0  0  0  0
 42 43  1  0  0  0  0
 42 39  1  0  0  0  0
 44 42  1  0  0  0  0
 45 48  1  0  0  0  0
 45 42  1  0  0  0  0
 46 45  1  0  0  0  0
 47 45  1  0  0  0  0
 48 49  1  0  0  0  0
 50 48  1  0  0  0  0
 51 48  1  0  0  0  0
 52 51  1  0  0  0  0
 53 51  1  0  0  0  0
 54 51  1  0  0  0  0
 54 55  1  0  0  0  0
 56 54  2  0  0  0  0
 57 56  1  0  0  0  0
 58 56  1  0  0  0  0
 59 58  1  0  0  0  0
 60 58  1  0  0  0  0
 61 62  1  0  0  0  0
 61 58  1  0  0  0  0
 63 61  1  0  0  0  0
 64 65  1  0  0  0  0
 64 61  1  0  0  0  0
 66 64  1  0  0  0  0
 67 68  1  0  0  0  0
 67 64  1  0  0  0  0
 69 67  1  0  0  0  0
 70 72  1  0  0  0  0
 70 67  1  0  0  0  0
 71 70  1  0  0  0  0
 73 74  1  0  0  0  0
 73 70  1  0  0  0  0
 75 73  1  0  0  0  0
 76 73  1  0  0  0  0
 77 78  1  0  0  0  0
 77 79  1  0  0  0  0
 80 82  1  0  0  0  0
 80 77  1  0  0  0  0
 81 80  1  0  0  0  0
 83 85  1  0  0  0  0
 83 80  1  0  0  0  0
 84 83  1  0  0  0  0
 86 87  1  0  0  0  0
 86 83  1  0  0  0  0
 88 86  1  0  0  0  0
 89 86  1  0  0  0  0
 90 89  1  0  0  0  0
 91 89  1  0  0  0  0
 92 89  1  0  0  0  0
 92 94  1  0  0  0  0
 93 92  1  0  0  0  0
 95 96  1  0  0  0  0
 95 92  1  0  0  0  0
 97 95  1  0  0  0  0
 98 97  1  0  0  0  0
 99100  1  0  0  0  0
 99 97  1  0  0  0  0
101 99  1  0  0  0  0
102 99  1  0  0  0  0
103102  1  0  0  0  0
104102  1  0  0  0  0
105106  1  0  0  0  0
107105  1  0  0  0  0
108110  1  0  0  0  0
109108  1  0  0  0  0
112111  1  0  0  0  0
113111  1  0  0  0  0
114115  1  0  0  0  0
114111  1  0  0  0  0
116114  1  0  0  0  0
117114  1  0  0  0  0
M  END
