SAPI24
 OpenBabel02161614153D

150150  0  0  1  0  0  0  0  0999 V2000
    5.7500   50.3500   62.8100 C   0  0  2  0  0  0  0  0  0  0  0  0
    5.7800   50.8900   61.8600 H   0  0  0  0  0  0  0  0  0  0  0  0
    7.1100   50.0100   63.0700 O   0  0  0  0  0  0  0  0  0  0  0  0
    7.6900   50.6500   62.6500 H   0  0  0  0  0  0  0  0  0  0  0  0
    5.1700   51.2500   63.9000 C   0  0  2  0  0  0  0  0  0  0  0  0
    4.1500   51.5900   63.6100 H   0  0  0  0  0  0  0  0  0  0  0  0
    5.9800   52.4300   64.0600 O   0  0  0  0  0  0  0  0  0  0  0  0
    5.6300   52.8800   64.8400 H   0  0  0  0  0  0  0  0  0  0  0  0
    5.0100   50.4800   65.2000 C   0  0  1  0  0  0  0  0  0  0  0  0
    6.0400   50.1200   65.4800 H   0  0  0  0  0  0  0  0  0  0  0  0
    4.4400   51.4100   66.1300 O   0  0  0  0  0  0  0  0  0  0  0  0
    5.2100   51.6600   67.5600 P   0  0  1  0  0  0  0  0  0  0  0  0
    5.7000   50.2900   68.2000 O   0  0  0  0  0  0  0  0  0  0  0  0
    5.0000   49.6200   68.1400 H   0  0  0  0  0  0  0  0  0  0  0  0
    6.5300   52.4000   67.3300 O   0  0  0  0  0  0  0  0  0  0  0  0
    4.3400   52.4200   68.5400 O   0  0  0  0  0  0  0  0  0  0  0  0
    4.1000   49.2400   65.0000 C   0  0  2  0  0  0  0  0  0  0  0  0
    3.0900   49.5800   64.6800 H   0  0  0  0  0  0  0  0  0  0  0  0
    4.0200   48.4800   66.2300 O   0  0  0  0  0  0  0  0  0  0  0  0
    2.6300   48.2100   67.0900 P   0  0  0  0  0  0  0  0  0  0  0  0
    3.0600   47.4300   68.3400 O   0  0  0  0  0  0  0  0  0  0  0  0
    1.7700   47.3300   66.2300 O   0  0  0  0  0  0  0  0  0  0  0  0
    1.9700   49.5300   67.4000 O   0  0  0  0  0  0  0  0  0  0  0  0
    4.7000   48.3500   63.8900 C   0  0  1  0  0  0  0  0  0  0  0  0
    5.6900   47.9800   64.2500 H   0  0  0  0  0  0  0  0  0  0  0  0
    3.8900   47.2300   63.5700 O   0  0  0  0  0  0  0  0  0  0  0  0
    4.2600   46.5000   64.0600 H   0  0  0  0  0  0  0  0  0  0  0  0
    4.8700   49.1200   62.5900 C   0  0  2  0  0  0  0  0  0  0  0  0
    3.8500   49.5000   62.3000 H   0  0  0  0  0  0  0  0  0  0  0  0
    4.8200   48.0400   60.0600 P   0  0  2  0  0  0  0  0  0  0  0  0
    4.8700   49.3400   59.3500 O   0  0  0  0  0  0  0  0  0  0  0  0
    3.4700   47.4300   60.1700 O   0  0  0  0  0  0  0  0  0  0  0  0
    5.4300   48.3000   61.5600 O   0  0  0  0  0  0  0  0  0  0  0  0
    5.8500   47.0300   59.4600 O   0  0  0  0  0  0  0  0  0  0  0  0
    7.2600   47.2600   59.3600 C   0  0  0  0  0  0  0  0  0  0  0  0
    7.7300   47.6200   60.3100 H   0  0  0  0  0  0  0  0  0  0  0  0
    7.7700   46.3100   59.0600 H   0  0  0  0  0  0  0  0  0  0  0  0
    7.6300   48.2800   58.2900 C   0  0  2  0  0  0  0  0  0  0  0  0
    7.5400   49.3100   58.7200 H   0  0  0  0  0  0  0  0  0  0  0  0
    6.8300   48.0800   57.1100 O   0  0  0  0  0  0  0  0  0  0  0  0
    6.7000   49.0700   56.2600 C   0  0  0  0  0  0  0  0  0  0  0  0
    7.0400   50.2300   56.4200 O   0  0  0  0  0  0  0  0  0  0  0  0
    5.9800   48.5600   55.0100 C   0  0  0  0  0  0  0  0  0  0  0  0
    6.4000   47.5900   54.6500 H   0  0  0  0  0  0  0  0  0  0  0  0
    4.9500   48.3700   55.3500 H   0  0  0  0  0  0  0  0  0  0  0  0
    9.0800   48.1100   57.9300 C   0  0  0  0  0  0  0  0  0  0  0  0
    9.8000   48.1900   58.7600 H   0  0  0  0  0  0  0  0  0  0  0  0
    9.1200   48.9500   57.2400 H   0  0  0  0  0  0  0  0  0  0  0  0
    9.3700   46.8800   57.3400 O   0  0  0  0  0  0  0  0  0  0  0  0
    9.5900   46.8500   56.1000 C   0  0  0  0  0  0  0  0  0  0  0  0
   10.0900   47.6700   55.3500 O   0  0  0  0  0  0  0  0  0  0  0  0
    9.1600   45.4800   55.7400 C   0  0  0  0  0  0  0  0  0  0  0  0
    8.1700   45.1600   56.0400 H   0  0  0  0  0  0  0  0  0  0  0  0
    9.8600   44.8200   56.3400 H   0  0  0  0  0  0  0  0  0  0  0  0
    5.9900   49.6200   53.8900 C   0  0  0  0  0  0  0  0  0  0  0  0
    7.0300   49.7600   53.5000 H   0  0  0  0  0  0  0  0  0  0  0  0
    5.6700   50.6100   54.2900 H   0  0  0  0  0  0  0  0  0  0  0  0
    5.0800   49.2400   52.7200 C   0  0  0  0  0  0  0  0  0  0  0  0
    5.4600   48.2700   52.3200 H   0  0  0  0  0  0  0  0  0  0  0  0
    5.2200   50.0100   51.9300 H   0  0  0  0  0  0  0  0  0  0  0  0
    3.6300   49.1900   53.1300 C   0  0  0  0  0  0  0  0  0  0  0  0
    3.3000   50.0400   53.7400 H   0  0  0  0  0  0  0  0  0  0  0  0
    2.7100   48.2800   52.7700 C   0  0  0  0  0  0  0  0  0  0  0  0
    1.7000   48.3400   53.2100 H   0  0  0  0  0  0  0  0  0  0  0  0
    2.9200   47.0900   51.8600 C   0  0  0  0  0  0  0  0  0  0  0  0
    2.7300   46.1700   52.4600 H   0  0  0  0  0  0  0  0  0  0  0  0
    3.9500   47.0000   51.4700 H   0  0  0  0  0  0  0  0  0  0  0  0
    1.9100   47.0900   50.7600 C   0  0  0  0  0  0  0  0  0  0  0  0
    0.9500   47.5700   50.9900 H   0  0  0  0  0  0  0  0  0  0  0  0
    2.0300   46.5600   49.5400 C   0  0  0  0  0  0  0  0  0  0  0  0
    1.1000   46.6200   49.0000 H   0  0  0  0  0  0  0  0  0  0  0  0
    3.1600   45.8000   48.8900 C   0  0  0  0  0  0  0  0  0  0  0  0
    2.7700   45.1200   48.1400 H   0  0  0  0  0  0  0  0  0  0  0  0
    3.6500   45.1400   49.6500 H   0  0  0  0  0  0  0  0  0  0  0  0
    4.1700   46.6100   48.1300 C   0  0  0  0  0  0  0  0  0  0  0  0
    4.3600   47.5900   48.5700 H   0  0  0  0  0  0  0  0  0  0  0  0
    4.7100   46.3000   46.9300 C   0  0  0  0  0  0  0  0  0  0  0  0
    5.4700   46.9700   46.5100 H   0  0  0  0  0  0  0  0  0  0  0  0
    4.4100   45.0600   46.1100 C   0  0  0  0  0  0  0  0  0  0  0  0
    3.3100   44.9200   46.0700 H   0  0  0  0  0  0  0  0  0  0  0  0
    4.8000   44.1500   46.6300 H   0  0  0  0  0  0  0  0  0  0  0  0
    4.8600   45.1100   44.6800 C   0  0  0  0  0  0  0  0  0  0  0  0
    5.6400   44.4100   44.4100 H   0  0  0  0  0  0  0  0  0  0  0  0
    4.3900   45.8200   43.6500 C   0  0  0  0  0  0  0  0  0  0  0  0
    4.8800   45.6900   42.6700 H   0  0  0  0  0  0  0  0  0  0  0  0
    3.2700   46.7900   43.6700 C   0  0  0  0  0  0  0  0  0  0  0  0
    2.9700   47.0300   44.7200 H   0  0  0  0  0  0  0  0  0  0  0  0
    2.4100   46.3000   43.1700 H   0  0  0  0  0  0  0  0  0  0  0  0
    3.6200   48.0900   42.9300 C   0  0  0  0  0  0  0  0  0  0  0  0
    4.4700   48.5700   43.4600 H   0  0  0  0  0  0  0  0  0  0  0  0
    2.7500   48.7800   43.0100 H   0  0  0  0  0  0  0  0  0  0  0  0
    3.9500   47.8500   41.4400 C   0  0  0  0  0  0  0  0  0  0  0  0
    3.1500   47.1900   41.0200 H   0  0  0  0  0  0  0  0  0  0  0  0
    4.9100   47.3000   41.3600 H   0  0  0  0  0  0  0  0  0  0  0  0
    4.1000   49.1000   40.5800 C   0  0  0  0  0  0  0  0  0  0  0  0
    4.8700   48.9800   39.7900 H   0  0  0  0  0  0  0  0  0  0  0  0
    4.4200   49.9500   41.2300 H   0  0  0  0  0  0  0  0  0  0  0  0
    2.7900   49.4400   39.9100 C   0  0  0  0  0  0  0  0  0  0  0  0
    2.3300   48.6600   39.3000 H   0  0  0  0  0  0  0  0  0  0  0  0
    2.8200   50.4000   39.3500 H   0  0  0  0  0  0  0  0  0  0  0  0
    2.1200   49.4400   40.7800 H   0  0  0  0  0  0  0  0  0  0  0  0
    9.2900   45.3100   54.2500 C   0  0  0  0  0  0  0  0  0  0  0  0
    9.2700   44.2000   54.1100 H   0  0  0  0  0  0  0  0  0  0  0  0
   10.2700   45.8300   54.2200 H   0  0  0  0  0  0  0  0  0  0  0  0
    8.6600   45.9300   53.0100 C   0  0  0  0  0  0  0  0  0  0  0  0
    8.6100   46.9800   53.3700 H   0  0  0  0  0  0  0  0  0  0  0  0
    7.7800   45.2600   53.0100 H   0  0  0  0  0  0  0  0  0  0  0  0
    9.3500   45.8500   51.5800 C   0  0  0  0  0  0  0  0  0  0  0  0
    9.3800   44.8000   51.1900 H   0  0  0  0  0  0  0  0  0  0  0  0
   10.3700   46.2700   51.4800 H   0  0  0  0  0  0  0  0  0  0  0  0
    8.7200   46.6200   50.5000 C   0  0  0  0  0  0  0  0  0  0  0  0
    7.6500   46.3700   50.5800 H   0  0  0  0  0  0  0  0  0  0  0  0
    9.1400   46.2200   49.5400 H   0  0  0  0  0  0  0  0  0  0  0  0
    9.1400   48.0800   50.6600 C   0  0  0  0  0  0  0  0  0  0  0  0
   10.2400   48.2100   50.8100 H   0  0  0  0  0  0  0  0  0  0  0  0
    8.6500   48.4900   51.5800 H   0  0  0  0  0  0  0  0  0  0  0  0
    8.7600   48.8200   49.4000 C   0  0  0  0  0  0  0  0  0  0  0  0
    9.0400   48.1500   48.5500 H   0  0  0  0  0  0  0  0  0  0  0  0
    9.3600   49.7500   49.3200 H   0  0  0  0  0  0  0  0  0  0  0  0
    7.2600   49.1000   49.4000 C   0  0  0  0  0  0  0  0  0  0  0  0
    6.9800   49.5900   50.3600 H   0  0  0  0  0  0  0  0  0  0  0  0
    6.7300   48.1200   49.3600 H   0  0  0  0  0  0  0  0  0  0  0  0
    6.7900   49.9900   48.2400 C   0  0  0  0  0  0  0  0  0  0  0  0
    7.1900   51.0200   48.3500 H   0  0  0  0  0  0  0  0  0  0  0  0
    5.6800   50.0700   48.3100 H   0  0  0  0  0  0  0  0  0  0  0  0
    7.2500   49.4700   46.8600 C   0  0  0  0  0  0  0  0  0  0  0  0
    7.0800   48.3800   46.7900 H   0  0  0  0  0  0  0  0  0  0  0  0
    8.3500   49.6200   46.8000 H   0  0  0  0  0  0  0  0  0  0  0  0
    6.6300   50.2400   45.6800 C   0  0  0  0  0  0  0  0  0  0  0  0
    7.0000   51.2900   45.7100 H   0  0  0  0  0  0  0  0  0  0  0  0
    5.5200   50.2800   45.8200 H   0  0  0  0  0  0  0  0  0  0  0  0
    6.9400   49.6400   44.3000 C   0  0  0  0  0  0  0  0  0  0  0  0
    6.4100   50.2500   43.5300 H   0  0  0  0  0  0  0  0  0  0  0  0
    6.5200   48.6100   44.2400 H   0  0  0  0  0  0  0  0  0  0  0  0
    8.4300   49.5900   43.9600 C   0  0  0  0  0  0  0  0  0  0  0  0
    8.9600   48.9400   44.7000 H   0  0  0  0  0  0  0  0  0  0  0  0
    8.8800   50.6100   44.0500 H   0  0  0  0  0  0  0  0  0  0  0  0
    8.7500   49.0700   42.5400 C   0  0  0  0  0  0  0  0  0  0  0  0
    8.2400   48.0900   42.4000 H   0  0  0  0  0  0  0  0  0  0  0  0
    9.8400   48.9000   42.5000 H   0  0  0  0  0  0  0  0  0  0  0  0
    8.3100   50.0100   41.4000 C   0  0  0  0  0  0  0  0  0  0  0  0
    8.7200   51.0300   41.5800 H   0  0  0  0  0  0  0  0  0  0  0  0
    7.2100   50.1100   41.4300 H   0  0  0  0  0  0  0  0  0  0  0  0
    8.6900   49.5400   39.9900 C   0  0  0  0  0  0  0  0  0  0  0  0
    9.8000   49.4700   39.9000 H   0  0  0  0  0  0  0  0  0  0  0  0
    8.3500   50.3300   39.2800 H   0  0  0  0  0  0  0  0  0  0  0  0
    8.1300   48.1800   39.5500 C   0  0  0  0  0  0  0  0  0  0  0  0
    8.5700   47.9400   38.5600 H   0  0  0  0  0  0  0  0  0  0  0  0
    7.0200   48.1600   39.4100 H   0  0  0  0  0  0  0  0  0  0  0  0
    8.4200   47.3600   40.2400 H   0  0  0  0  0  0  0  0  0  0  0  0
  1  2  1  6  0  0  0
  1  3  1  0  0  0  0
  1  5  1  0  0  0  0
  4  3  1  0  0  0  0
  5  6  1  6  0  0  0
  5  7  1  0  0  0  0
  5  9  1  0  0  0  0
  7  8  1  0  0  0  0
  9 10  1  1  0  0  0
  9 11  1  0  0  0  0
 12 11  1  6  0  0  0
 12 13  1  0  0  0  0
 12 16  1  0  0  0  0
 14 13  1  0  0  0  0
 15 12  2  0  0  0  0
 17 18  1  6  0  0  0
 17  9  1  0  0  0  0
 17 19  1  0  0  0  0
 19 20  1  0  0  0  0
 20 23  1  0  0  0  0
 20 21  1  0  0  0  0
 22 20  2  0  0  0  0
 24 25  1  1  0  0  0
 24 17  1  0  0  0  0
 26 24  1  0  0  0  0
 26 27  1  0  0  0  0
 28 29  1  6  0  0  0
 28  1  1  0  0  0  0
 28 24  1  0  0  0  0
 30 31  2  6  0  0  0
 30 32  1  0  0  0  0
 30 33  1  0  0  0  0
 33 28  1  0  0  0  0
 34 30  1  0  0  0  0
 35 34  1  0  0  0  0
 35 36  1  0  0  0  0
 37 35  1  0  0  0  0
 38 39  1  1  0  0  0
 38 35  1  0  0  0  0
 40 38  1  0  0  0  0
 41 42  2  0  0  0  0
 41 40  1  0  0  0  0
 43 45  1  0  0  0  0
 43 41  1  0  0  0  0
 44 43  1  0  0  0  0
 46 38  1  0  0  0  0
 46 47  1  0  0  0  0
 48 46  1  0  0  0  0
 49 46  1  0  0  0  0
 50 49  1  0  0  0  0
 51 50  2  0  0  0  0
 52 53  1  0  0  0  0
 52 50  1  0  0  0  0
 52 54  1  0  0  0  0
 55 57  1  0  0  0  0
 55 43  1  0  0  0  0
 56 55  1  0  0  0  0
 58 61  1  0  0  0  0
 58 55  1  0  0  0  0
 59 58  1  0  0  0  0
 60 58  1  0  0  0  0
 61 62  1  0  0  0  0
 63 61  2  0  0  0  0
 63 64  1  0  0  0  0
 65 66  1  0  0  0  0
 65 63  1  0  0  0  0
 67 65  1  0  0  0  0
 68 69  1  0  0  0  0
 68 65  1  0  0  0  0
 70 68  2  0  0  0  0
 71 70  1  0  0  0  0
 72 70  1  0  0  0  0
 72 74  1  0  0  0  0
 73 72  1  0  0  0  0
 75 76  1  0  0  0  0
 75 72  1  0  0  0  0
 77 75  2  0  0  0  0
 78 77  1  0  0  0  0
 79 81  1  0  0  0  0
 79 77  1  0  0  0  0
 80 79  1  0  0  0  0
 82 79  1  0  0  0  0
 83 82  1  0  0  0  0
 84 86  1  0  0  0  0
 84 82  2  0  0  0  0
 85 84  1  0  0  0  0
 86 87  1  0  0  0  0
 88 86  1  0  0  0  0
 89 91  1  0  0  0  0
 89 90  1  0  0  0  0
 89 86  1  0  0  0  0
 92 89  1  0  0  0  0
 93 92  1  0  0  0  0
 94 92  1  0  0  0  0
 95 97  1  0  0  0  0
 95 92  1  0  0  0  0
 96 95  1  0  0  0  0
 98 95  1  0  0  0  0
 98101  1  0  0  0  0
 99 98  1  0  0  0  0
100 98  1  0  0  0  0
102 52  1  0  0  0  0
103102  1  0  0  0  0
104102  1  0  0  0  0
105106  1  0  0  0  0
105102  1  0  0  0  0
107105  1  0  0  0  0
108105  1  0  0  0  0
109108  1  0  0  0  0
110108  1  0  0  0  0
111112  1  0  0  0  0
111114  1  0  0  0  0
111108  1  0  0  0  0
113111  1  0  0  0  0
114115  1  0  0  0  0
114116  1  0  0  0  0
117120  1  0  0  0  0
117114  1  0  0  0  0
118117  1  0  0  0  0
119117  1  0  0  0  0
120121  1  0  0  0  0
122120  1  0  0  0  0
123125  1  0  0  0  0
123124  1  0  0  0  0
123120  1  0  0  0  0
126123  1  0  0  0  0
127126  1  0  0  0  0
128126  1  0  0  0  0
129130  1  0  0  0  0
129131  1  0  0  0  0
129126  1  0  0  0  0
132129  1  0  0  0  0
133132  1  0  0  0  0
134132  1  0  0  0  0
135137  1  0  0  0  0
135132  1  0  0  0  0
135136  1  0  0  0  0
138135  1  0  0  0  0
139138  1  0  0  0  0
140138  1  0  0  0  0
141143  1  0  0  0  0
141142  1  0  0  0  0
141138  1  0  0  0  0
144141  1  0  0  0  0
145144  1  0  0  0  0
146144  1  0  0  0  0
147144  1  0  0  0  0
147150  1  0  0  0  0
148147  1  0  0  0  0
149147  1  0  0  0  0
M  END
