PLPI13
 OpenBabel02161614153D

138138  0  0  1  0  0  0  0  0999 V2000
   41.2600   24.4700   62.6700 C   0  0  2  0  0  0  0  0  0  0  0  0
   40.4900   25.2300   62.3900 H   0  0  0  0  0  0  0  0  0  0  0  0
   42.5700   25.0400   62.5100 O   0  0  0  0  0  0  0  0  0  0  0  0
   42.4600   25.9900   62.5100 H   0  0  0  0  0  0  0  0  0  0  0  0
   40.9900   24.0000   64.1100 C   0  0  2  0  0  0  0  0  0  0  0  0
   39.9600   23.5400   64.1300 H   0  0  0  0  0  0  0  0  0  0  0  0
   41.0400   25.1400   64.9900 O   0  0  0  0  0  0  0  0  0  0  0  0
   39.7500   25.6500   65.9200 P   0  0  0  0  0  0  0  0  0  0  0  0
   40.2000   26.9900   66.5300 O   0  0  0  0  0  0  0  0  0  0  0  0
   39.4500   24.5500   66.9600 O   0  0  0  0  0  0  0  0  0  0  0  0
   38.6500   25.9800   64.9100 O   0  0  0  0  0  0  0  0  0  0  0  0
   41.9800   22.8800   64.4700 C   0  0  1  0  0  0  0  0  0  0  0  0
   43.0100   23.2500   64.3800 H   0  0  0  0  0  0  0  0  0  0  0  0
   41.8800   22.4300   65.8300 O   0  0  0  0  0  0  0  0  0  0  0  0
   41.5600   21.5300   65.8000 H   0  0  0  0  0  0  0  0  0  0  0  0
   41.8000   21.7000   63.5100 C   0  0  2  0  0  0  0  0  0  0  0  0
   40.8100   21.2100   63.6200 H   0  0  0  0  0  0  0  0  0  0  0  0
   42.8000   20.7200   63.7900 O   0  0  0  0  0  0  0  0  0  0  0  0
   42.6800   20.4100   64.7000 H   0  0  0  0  0  0  0  0  0  0  0  0
   42.0000   22.1700   62.0800 C   0  0  1  0  0  0  0  0  0  0  0  0
   43.0600   22.4500   61.9100 H   0  0  0  0  0  0  0  0  0  0  0  0
   41.6200   21.1100   61.2000 O   0  0  0  0  0  0  0  0  0  0  0  0
   42.1900   20.3600   61.1300 H   0  0  0  0  0  0  0  0  0  0  0  0
   41.0800   23.3100   61.7200 C   0  0  2  0  0  0  0  0  0  0  0  0
   40.0200   22.9500   61.8400 H   0  0  0  0  0  0  0  0  0  0  0  0
   40.1400   24.0700   59.3500 P   0  0  2  0  0  0  0  0  0  0  0  0
   39.7900   25.4500   59.8000 O   0  0  0  0  0  0  0  0  0  0  0  0
   39.1300   23.0000   59.3000 O   0  0  0  0  0  0  0  0  0  0  0  0
   41.3900   23.6600   60.3500 O   0  0  0  0  0  0  0  0  0  0  0  0
   40.9800   24.1900   58.0200 O   0  0  0  0  0  0  0  0  0  0  0  0
   41.6800   25.4000   57.7600 C   0  0  0  0  0  0  0  0  0  0  0  0
   42.3600   25.6600   58.6100 H   0  0  0  0  0  0  0  0  0  0  0  0
   40.9500   26.2400   57.6500 H   0  0  0  0  0  0  0  0  0  0  0  0
   42.5000   25.2700   56.4500 C   0  0  2  0  0  0  0  0  0  0  0  0
   42.7800   26.2800   56.1000 H   0  0  0  0  0  0  0  0  0  0  0  0
   41.8100   24.5600   55.4000 O   0  0  0  0  0  0  0  0  0  0  0  0
   40.6500   25.0900   55.0600 C   0  0  0  0  0  0  0  0  0  0  0  0
   40.2100   26.1700   55.4400 O   0  0  0  0  0  0  0  0  0  0  0  0
   39.9700   24.2500   54.0200 C   0  0  0  0  0  0  0  0  0  0  0  0
   39.6000   23.3000   54.4700 H   0  0  0  0  0  0  0  0  0  0  0  0
   40.6200   24.0000   53.1600 H   0  0  0  0  0  0  0  0  0  0  0  0
   43.8100   24.5000   56.7700 C   0  0  0  0  0  0  0  0  0  0  0  0
   44.4600   25.1100   57.4400 H   0  0  0  0  0  0  0  0  0  0  0  0
   43.5200   23.6000   57.3300 H   0  0  0  0  0  0  0  0  0  0  0  0
   44.5000   24.0800   55.5900 O   0  0  0  0  0  0  0  0  0  0  0  0
   45.0700   25.0900   54.9400 C   0  0  0  0  0  0  0  0  0  0  0  0
   45.1400   26.2200   55.3800 O   0  0  0  0  0  0  0  0  0  0  0  0
   45.4700   24.5700   53.5500 C   0  0  0  0  0  0  0  0  0  0  0  0
   46.1300   23.6900   53.6700 H   0  0  0  0  0  0  0  0  0  0  0  0
   46.0100   25.3100   52.9600 H   0  0  0  0  0  0  0  0  0  0  0  0
   38.8400   25.0800   53.4700 C   0  0  0  0  0  0  0  0  0  0  0  0
   39.2100   25.8400   52.7400 H   0  0  0  0  0  0  0  0  0  0  0  0
   38.1600   25.5800   54.2000 H   0  0  0  0  0  0  0  0  0  0  0  0
   38.0300   24.1500   52.7300 C   0  0  0  0  0  0  0  0  0  0  0  0
   37.3800   23.4900   53.3800 H   0  0  0  0  0  0  0  0  0  0  0  0
   38.6400   23.5100   52.0400 H   0  0  0  0  0  0  0  0  0  0  0  0
   37.2100   24.9600   51.8900 C   0  0  0  0  0  0  0  0  0  0  0  0
   37.6700   25.6600   51.1300 H   0  0  0  0  0  0  0  0  0  0  0  0
   36.4300   25.5700   52.4500 H   0  0  0  0  0  0  0  0  0  0  0  0
   36.6200   23.6800   51.4300 C   0  0  0  0  0  0  0  0  0  0  0  0
   36.3100   24.5000   50.7800 H   0  0  0  0  0  0  0  0  0  0  0  0
   35.8800   23.1700   52.0600 H   0  0  0  0  0  0  0  0  0  0  0  0
   36.8700   22.5700   50.5000 C   0  0  0  0  0  0  0  0  0  0  0  0
   35.8700   22.3000   50.0900 H   0  0  0  0  0  0  0  0  0  0  0  0
   37.0600   21.6900   51.1300 H   0  0  0  0  0  0  0  0  0  0  0  0
   37.8100   23.1100   49.5100 C   0  0  0  0  0  0  0  0  0  0  0  0
   38.6500   23.5300   50.0200 H   0  0  0  0  0  0  0  0  0  0  0  0
   37.5300   23.9700   48.8500 H   0  0  0  0  0  0  0  0  0  0  0  0
   38.4500   22.0400   48.9000 C   0  0  0  0  0  0  0  0  0  0  0  0
   38.0000   21.0600   49.1700 H   0  0  0  0  0  0  0  0  0  0  0  0
   38.5000   22.2300   47.6400 C   0  0  0  0  0  0  0  0  0  0  0  0
   39.2000   21.4700   47.2800 H   0  0  0  0  0  0  0  0  0  0  0  0
   38.0100   23.3200   46.6400 C   0  0  0  0  0  0  0  0  0  0  0  0
   37.0700   23.8300   46.8900 H   0  0  0  0  0  0  0  0  0  0  0  0
   37.6100   23.1400   45.5900 H   0  0  0  0  0  0  0  0  0  0  0  0
   39.3600   23.8900   46.6400 C   0  0  0  0  0  0  0  0  0  0  0  0
   40.2700   23.2400   46.6500 H   0  0  0  0  0  0  0  0  0  0  0  0
   39.4600   25.1700   46.6100 C   0  0  0  0  0  0  0  0  0  0  0  0
   40.4600   25.5300   46.8000 H   0  0  0  0  0  0  0  0  0  0  0  0
   38.2600   26.0800   46.5600 C   0  0  0  0  0  0  0  0  0  0  0  0
   38.4100   26.8200   47.3400 H   0  0  0  0  0  0  0  0  0  0  0  0
   37.2500   25.6500   46.7700 H   0  0  0  0  0  0  0  0  0  0  0  0
   38.1600   26.7100   45.1700 C   0  0  0  0  0  0  0  0  0  0  0  0
   39.1600   26.8500   44.7100 H   0  0  0  0  0  0  0  0  0  0  0  0
   37.7000   27.7100   45.2900 H   0  0  0  0  0  0  0  0  0  0  0  0
   37.2500   25.9100   44.2500 C   0  0  0  0  0  0  0  0  0  0  0  0
   36.2400   25.8000   44.7200 H   0  0  0  0  0  0  0  0  0  0  0  0
   37.6300   24.9000   44.0100 H   0  0  0  0  0  0  0  0  0  0  0  0
   37.1000   26.6100   42.9300 C   0  0  0  0  0  0  0  0  0  0  0  0
   38.0600   26.7200   42.3800 H   0  0  0  0  0  0  0  0  0  0  0  0
   36.7800   27.6700   43.1300 H   0  0  0  0  0  0  0  0  0  0  0  0
   36.1400   25.8000   42.0500 C   0  0  0  0  0  0  0  0  0  0  0  0
   36.4100   24.8400   41.6100 H   0  0  0  0  0  0  0  0  0  0  0  0
   35.1000   25.7500   42.4300 H   0  0  0  0  0  0  0  0  0  0  0  0
   36.1900   26.3200   41.1200 H   0  0  0  0  0  0  0  0  0  0  0  0
   44.2600   24.2800   52.6600 C   0  0  0  0  0  0  0  0  0  0  0  0
   43.4700   23.7800   53.2600 H   0  0  0  0  0  0  0  0  0  0  0  0
   44.6300   23.5900   51.8600 H   0  0  0  0  0  0  0  0  0  0  0  0
   43.7300   25.5900   52.0800 C   0  0  0  0  0  0  0  0  0  0  0  0
   44.5500   26.1800   51.6200 H   0  0  0  0  0  0  0  0  0  0  0  0
   43.3300   26.1900   52.9300 H   0  0  0  0  0  0  0  0  0  0  0  0
   42.6000   25.4100   51.0500 C   0  0  0  0  0  0  0  0  0  0  0  0
   42.3900   26.3700   50.5500 H   0  0  0  0  0  0  0  0  0  0  0  0
   41.6900   25.0900   51.6000 H   0  0  0  0  0  0  0  0  0  0  0  0
   42.8600   24.3200   50.0100 C   0  0  0  0  0  0  0  0  0  0  0  0
   41.9200   24.2000   49.4300 H   0  0  0  0  0  0  0  0  0  0  0  0
   43.0600   23.3500   50.5200 H   0  0  0  0  0  0  0  0  0  0  0  0
   44.0000   24.5900   49.0100 C   0  0  0  0  0  0  0  0  0  0  0  0
   44.9300   24.9300   49.5100 H   0  0  0  0  0  0  0  0  0  0  0  0
   43.6600   25.4000   48.3300 H   0  0  0  0  0  0  0  0  0  0  0  0
   44.2600   23.3000   48.2100 C   0  0  0  0  0  0  0  0  0  0  0  0
   43.3700   23.1100   47.5900 H   0  0  0  0  0  0  0  0  0  0  0  0
   44.3600   22.4300   48.9000 H   0  0  0  0  0  0  0  0  0  0  0  0
   45.5400   23.3400   47.3700 C   0  0  0  0  0  0  0  0  0  0  0  0
   45.7600   22.2900   47.0500 H   0  0  0  0  0  0  0  0  0  0  0  0
   46.4000   23.7000   47.9900 H   0  0  0  0  0  0  0  0  0  0  0  0
   45.4800   24.2400   46.1400 C   0  0  0  0  0  0  0  0  0  0  0  0
   46.4800   24.1500   45.7200 H   0  0  0  0  0  0  0  0  0  0  0  0
   45.3500   25.3100   46.3900 H   0  0  0  0  0  0  0  0  0  0  0  0
   44.5500   23.7900   45.0200 C   0  0  0  0  0  0  0  0  0  0  0  0
   43.5900   23.4500   45.4400 H   0  0  0  0  0  0  0  0  0  0  0  0
   45.0400   22.9200   44.5300 H   0  0  0  0  0  0  0  0  0  0  0  0
   44.2800   24.9000   43.9900 C   0  0  0  0  0  0  0  0  0  0  0  0
   43.8900   24.4300   43.0600 H   0  0  0  0  0  0  0  0  0  0  0  0
   45.2200   25.4300   43.7400 H   0  0  0  0  0  0  0  0  0  0  0  0
   43.2800   25.9800   44.4700 C   0  0  0  0  0  0  0  0  0  0  0  0
   43.7900   26.5800   45.2600 H   0  0  0  0  0  0  0  0  0  0  0  0
   42.3800   25.5200   44.9300 H   0  0  0  0  0  0  0  0  0  0  0  0
   42.8600   26.9400   43.3400 C   0  0  0  0  0  0  0  0  0  0  0  0
   42.0200   26.5200   42.7500 H   0  0  0  0  0  0  0  0  0  0  0  0
   43.7200   27.0500   42.6400 H   0  0  0  0  0  0  0  0  0  0  0  0
   42.5400   28.3500   43.8600 C   0  0  0  0  0  0  0  0  0  0  0  0
   43.4900   28.7500   44.2800 H   0  0  0  0  0  0  0  0  0  0  0  0
   41.8100   28.3000   44.7000 H   0  0  0  0  0  0  0  0  0  0  0  0
   42.0400   29.3200   42.7800 C   0  0  0  0  0  0  0  0  0  0  0  0
   42.6200   29.2200   41.8300 H   0  0  0  0  0  0  0  0  0  0  0  0
   40.9800   29.1100   42.5300 H   0  0  0  0  0  0  0  0  0  0  0  0
   42.1400   30.3700   43.1300 H   0  0  0  0  0  0  0  0  0  0  0  0
  1  2  1  6  0  0  0
  1  5  1  0  0  0  0
  3  4  1  0  0  0  0
  3  1  1  0  0  0  0
  5  6  1  1  0  0  0
  5 12  1  0  0  0  0
  5  7  1  0  0  0  0
  7  8  1  0  0  0  0
  8  9  1  0  0  0  0
  8 10  1  0  0  0  0
 11  8  2  0  0  0  0
 12 13  1  6  0  0  0
 12 14  1  0  0  0  0
 15 14  1  0  0  0  0
 16 17  1  1  0  0  0
 16 18  1  0  0  0  0
 16 12  1  0  0  0  0
 18 19  1  0  0  0  0
 20 21  1  6  0  0  0
 20 16  1  0  0  0  0
 22 20  1  0  0  0  0
 23 22  1  0  0  0  0
 24 25  1  1  0  0  0
 24 20  1  0  0  0  0
 24  1  1  0  0  0  0
 26 30  1  6  0  0  0
 26 27  1  0  0  0  0
 26 29  1  0  0  0  0
 28 26  2  0  0  0  0
 29 24  1  0  0  0  0
 31 30  1  0  0  0  0
 31 32  1  0  0  0  0
 33 31  1  0  0  0  0
 34 35  1  6  0  0  0
 34 42  1  0  0  0  0
 34 31  1  0  0  0  0
 36 34  1  0  0  0  0
 37 36  1  0  0  0  0
 37 38  2  0  0  0  0
 39 40  1  0  0  0  0
 39 37  1  0  0  0  0
 41 39  1  0  0  0  0
 42 44  1  0  0  0  0
 42 43  1  0  0  0  0
 45 42  1  0  0  0  0
 46 47  2  0  0  0  0
 46 45  1  0  0  0  0
 48 49  1  0  0  0  0
 48 46  1  0  0  0  0
 50 48  1  0  0  0  0
 51 39  1  0  0  0  0
 51 53  1  0  0  0  0
 52 51  1  0  0  0  0
 54 55  1  0  0  0  0
 54 51  1  0  0  0  0
 56 54  1  0  0  0  0
 57 59  1  0  0  0  0
 57 54  1  0  0  0  0
 58 57  1  0  0  0  0
 60 57  1  0  0  0  0
 60 62  1  0  0  0  0
 61 60  1  0  0  0  0
 63 65  1  0  0  0  0
 63 60  1  0  0  0  0
 64 63  1  0  0  0  0
 66 67  1  0  0  0  0
 66 63  1  0  0  0  0
 68 66  1  0  0  0  0
 69 70  1  0  0  0  0
 69 66  1  0  0  0  0
 71 69  1  0  0  0  0
 72 71  1  0  0  0  0
 73 76  1  0  0  0  0
 73 74  1  0  0  0  0
 73 71  1  0  0  0  0
 75 73  1  0  0  0  0
 76 77  1  0  0  0  0
 78 76  2  0  0  0  0
 78 79  1  0  0  0  0
 80 78  1  0  0  0  0
 80 82  1  0  0  0  0
 80 81  1  0  0  0  0
 83 85  1  0  0  0  0
 83 80  1  0  0  0  0
 84 83  1  0  0  0  0
 86 87  1  0  0  0  0
 86 83  1  0  0  0  0
 88 86  1  0  0  0  0
 89 91  1  0  0  0  0
 89 86  1  0  0  0  0
 90 89  1  0  0  0  0
 92 94  1  0  0  0  0
 92 89  1  0  0  0  0
 93 92  1  0  0  0  0
 95 92  1  0  0  0  0
 96 97  1  0  0  0  0
 96 48  1  0  0  0  0
 98 96  1  0  0  0  0
 99 96  1  0  0  0  0
 99101  1  0  0  0  0
100 99  1  0  0  0  0
102104  1  0  0  0  0
102 99  1  0  0  0  0
103102  1  0  0  0  0
105107  1  0  0  0  0
105102  1  0  0  0  0
106105  1  0  0  0  0
108109  1  0  0  0  0
108105  1  0  0  0  0
110108  1  0  0  0  0
111113  1  0  0  0  0
111108  1  0  0  0  0
112111  1  0  0  0  0
114116  1  0  0  0  0
114111  1  0  0  0  0
115114  1  0  0  0  0
117119  1  0  0  0  0
117114  1  0  0  0  0
118117  1  0  0  0  0
120121  1  0  0  0  0
120117  1  0  0  0  0
122120  1  0  0  0  0
123126  1  0  0  0  0
123120  1  0  0  0  0
124123  1  0  0  0  0
125123  1  0  0  0  0
126128  1  0  0  0  0
126127  1  0  0  0  0
129132  1  0  0  0  0
129126  1  0  0  0  0
130129  1  0  0  0  0
131129  1  0  0  0  0
132133  1  0  0  0  0
132134  1  0  0  0  0
135138  1  0  0  0  0
135132  1  0  0  0  0
136135  1  0  0  0  0
137135  1  0  0  0  0
M  END
