BSM
 OpenBabel02161614153D

145144  0  0  1  0  0  0  0  0999 V2000
    3.9300   61.7900   65.4300 N   0  0  0  0  0  0  0  0  0  0  0  0
    5.2000   61.0200   65.3600 C   0  0  0  0  0  0  0  0  0  0  0  0
    5.1900   60.3300   64.5100 H   0  0  0  0  0  0  0  0  0  0  0  0
    5.2200   60.3900   66.2400 H   0  0  0  0  0  0  0  0  0  0  0  0
    6.0800   61.6300   65.2800 H   0  0  0  0  0  0  0  0  0  0  0  0
    4.0900   62.8700   66.4400 C   0  0  0  0  0  0  0  0  0  0  0  0
    4.9300   63.4800   66.1600 H   0  0  0  0  0  0  0  0  0  0  0  0
    4.2400   62.5300   67.4600 H   0  0  0  0  0  0  0  0  0  0  0  0
    3.2400   63.5400   66.4300 H   0  0  0  0  0  0  0  0  0  0  0  0
    3.6900   62.4500   64.1200 C   0  0  0  0  0  0  0  0  0  0  0  0
    3.7800   61.7300   63.3100 H   0  0  0  0  0  0  0  0  0  0  0  0
    4.4500   63.2000   64.0000 H   0  0  0  0  0  0  0  0  0  0  0  0
    2.7100   62.9200   64.0800 H   0  0  0  0  0  0  0  0  0  0  0  0
    2.7800   60.9000   65.8500 C   0  0  0  0  0  0  0  0  0  0  0  0
    1.9200   61.5100   66.0700 H   0  0  0  0  0  0  0  0  0  0  0  0
    3.0700   60.4700   66.7900 H   0  0  0  0  0  0  0  0  0  0  0  0
    2.3000   59.7400   64.9500 C   0  0  0  0  0  0  0  0  0  0  0  0
    1.6400   60.1200   64.1300 H   0  0  0  0  0  0  0  0  0  0  0  0
    1.7500   59.0200   65.6000 H   0  0  0  0  0  0  0  0  0  0  0  0
    3.3900   57.8300   63.5900 P   0  0  2  0  0  0  0  0  0  0  0  0
    4.1500   56.7600   64.2300 O   0  0  0  0  0  0  0  0  0  0  0  0
    1.9300   57.6200   63.3900 O   0  0  0  0  0  0  0  0  0  0  0  0
    3.9700   58.1000   62.1400 O   0  0  0  0  0  0  0  0  0  0  0  0
    3.4400   59.1500   64.3900 O   0  0  0  0  0  0  0  0  0  0  0  0
    3.9300   59.4600   61.7200 C   0  0  0  0  0  0  0  0  0  0  0  0
    4.6500   60.0400   62.3300 H   0  0  0  0  0  0  0  0  0  0  0  0
    2.9100   59.9000   61.8600 H   0  0  0  0  0  0  0  0  0  0  0  0
    4.3600   61.0000   59.8900 N   0  0  0  0  0  0  0  0  0  0  0  0
    3.7500   61.3300   59.1800 H   0  0  0  0  0  0  0  0  0  0  0  0
    4.2900   59.6000   60.2300 C   0  0  2  0  0  0  0  0  0  0  0  0
    5.2900   59.1400   60.0400 H   0  0  0  0  0  0  0  0  0  0  0  0
    3.2400   58.8100   59.4400 C   0  0  2  0  0  0  0  0  0  0  0  0
    2.2300   58.8700   59.8900 H   0  0  0  0  0  0  0  0  0  0  0  0
    3.5800   57.4300   59.4400 O   0  0  0  0  0  0  0  0  0  0  0  0
    4.2400   57.1800   60.0600 H   0  0  0  0  0  0  0  0  0  0  0  0
    3.1100   59.2900   58.0100 C   0  0  0  0  0  0  0  0  0  0  0  0
    4.0500   59.2900   57.4500 H   0  0  0  0  0  0  0  0  0  0  0  0
    1.9900   59.6800   57.3700 C   0  0  0  0  0  0  0  0  0  0  0  0
    1.0000   59.6400   57.8500 H   0  0  0  0  0  0  0  0  0  0  0  0
    2.0400   60.1200   55.9300 C   0  0  0  0  0  0  0  0  0  0  0  0
    1.6200   59.3400   55.2600 H   0  0  0  0  0  0  0  0  0  0  0  0
    3.0900   60.3400   55.6100 H   0  0  0  0  0  0  0  0  0  0  0  0
    1.2700   61.4000   55.6600 C   0  0  0  0  0  0  0  0  0  0  0  0
    2.0100   62.2200   55.7400 H   0  0  0  0  0  0  0  0  0  0  0  0
    0.4200   61.5900   56.3300 H   0  0  0  0  0  0  0  0  0  0  0  0
    0.4900   61.3500   54.3600 C   0  0  0  0  0  0  0  0  0  0  0  0
   -0.1500   62.2800   54.3500 H   0  0  0  0  0  0  0  0  0  0  0  0
   -0.1400   60.4900   54.1300 H   0  0  0  0  0  0  0  0  0  0  0  0
    1.4500   61.2200   53.2100 C   0  0  0  0  0  0  0  0  0  0  0  0
    2.1600   60.4700   52.9600 H   0  0  0  0  0  0  0  0  0  0  0  0
    2.1200   61.9600   53.6700 H   0  0  0  0  0  0  0  0  0  0  0  0
    0.8400   61.4700   51.8500 C   0  0  0  0  0  0  0  0  0  0  0  0
    0.5100   62.3400   52.5900 H   0  0  0  0  0  0  0  0  0  0  0  0
   -0.2200   61.2900   51.6400 H   0  0  0  0  0  0  0  0  0  0  0  0
    1.8900   61.7100   50.3800 C   0  0  0  0  0  0  0  0  0  0  0  0
    2.9300   62.1400   50.3000 H   0  0  0  0  0  0  0  0  0  0  0  0
    1.9800   62.7500   49.8000 H   0  0  0  0  0  0  0  0  0  0  0  0
    1.5700   60.6800   49.5700 C   0  0  0  0  0  0  0  0  0  0  0  0
    0.4700   60.6300   49.4800 H   0  0  0  0  0  0  0  0  0  0  0  0
    1.9400   60.0000   50.3700 H   0  0  0  0  0  0  0  0  0  0  0  0
    2.2900   60.8200   48.2800 C   0  0  0  0  0  0  0  0  0  0  0  0
    2.1500   59.7500   48.0400 H   0  0  0  0  0  0  0  0  0  0  0  0
    3.3400   61.1300   48.4000 H   0  0  0  0  0  0  0  0  0  0  0  0
    1.6400   61.6700   47.1900 C   0  0  0  0  0  0  0  0  0  0  0  0
    1.7700   62.7700   47.3500 H   0  0  0  0  0  0  0  0  0  0  0  0
    0.5600   61.4100   47.2300 H   0  0  0  0  0  0  0  0  0  0  0  0
    2.2200   61.2700   45.8300 C   0  0  0  0  0  0  0  0  0  0  0  0
    2.3000   60.1600   45.8600 H   0  0  0  0  0  0  0  0  0  0  0  0
    3.2400   61.6900   45.7400 H   0  0  0  0  0  0  0  0  0  0  0  0
    1.3700   61.6800   44.6200 C   0  0  0  0  0  0  0  0  0  0  0  0
    1.1500   62.7600   44.6800 H   0  0  0  0  0  0  0  0  0  0  0  0
    0.4000   61.1400   44.6500 H   0  0  0  0  0  0  0  0  0  0  0  0
    2.0800   61.4800   43.2700 C   0  0  0  0  0  0  0  0  0  0  0  0
    2.6100   60.5200   43.2000 H   0  0  0  0  0  0  0  0  0  0  0  0
    2.8500   62.2900   43.2100 H   0  0  0  0  0  0  0  0  0  0  0  0
    1.1500   61.5700   42.0600 C   0  0  0  0  0  0  0  0  0  0  0  0
    0.3000   60.8800   42.1600 H   0  0  0  0  0  0  0  0  0  0  0  0
    1.7100   61.2800   41.1500 H   0  0  0  0  0  0  0  0  0  0  0  0
    0.7300   62.5900   41.9600 H   0  0  0  0  0  0  0  0  0  0  0  0
    5.2600   61.8100   60.3900 C   0  0  0  0  0  0  0  0  0  0  0  0
    6.0900   61.5100   61.2400 O   0  0  0  0  0  0  0  0  0  0  0  0
    5.2000   63.1200   59.8400 C   0  0  0  0  0  0  0  0  0  0  0  0
    4.7100   63.8300   60.5600 H   0  0  0  0  0  0  0  0  0  0  0  0
    4.6400   63.2000   58.8700 H   0  0  0  0  0  0  0  0  0  0  0  0
    6.6600   63.4100   59.6100 C   0  0  0  0  0  0  0  0  0  0  0  0
    7.3500   63.5900   60.4500 H   0  0  0  0  0  0  0  0  0  0  0  0
    6.3300   64.3500   59.4400 H   0  0  0  0  0  0  0  0  0  0  0  0
    7.3300   62.8400   58.3500 C   0  0  0  0  0  0  0  0  0  0  0  0
    7.6800   61.8500   58.7100 H   0  0  0  0  0  0  0  0  0  0  0  0
    8.2100   63.4200   57.9900 H   0  0  0  0  0  0  0  0  0  0  0  0
    6.4300   62.7600   57.1200 C   0  0  0  0  0  0  0  0  0  0  0  0
    5.7800   63.6700   57.0800 H   0  0  0  0  0  0  0  0  0  0  0  0
    5.8100   61.8500   57.2700 H   0  0  0  0  0  0  0  0  0  0  0  0
    7.1600   62.6600   55.7800 C   0  0  0  0  0  0  0  0  0  0  0  0
    7.8200   61.7600   55.7900 H   0  0  0  0  0  0  0  0  0  0  0  0
    7.8300   63.5400   55.6300 H   0  0  0  0  0  0  0  0  0  0  0  0
    6.1600   62.5900   54.6100 C   0  0  0  0  0  0  0  0  0  0  0  0
    5.6000   63.5400   54.5900 H   0  0  0  0  0  0  0  0  0  0  0  0
    5.4600   61.7600   54.7400 H   0  0  0  0  0  0  0  0  0  0  0  0
    6.7700   62.2800   53.2600 C   0  0  0  0  0  0  0  0  0  0  0  0
    7.3500   61.3600   53.3100 H   0  0  0  0  0  0  0  0  0  0  0  0
    7.5500   63.0600   53.2500 H   0  0  0  0  0  0  0  0  0  0  0  0
    5.7900   62.1000   52.0100 C   0  0  0  0  0  0  0  0  0  0  0  0
    5.0900   62.9000   51.6900 H   0  0  0  0  0  0  0  0  0  0  0  0
    5.0900   61.3400   52.1900 H   0  0  0  0  0  0  0  0  0  0  0  0
    6.5500   61.9300   50.7200 C   0  0  0  0  0  0  0  0  0  0  0  0
    7.5500   61.7200   50.8000 H   0  0  0  0  0  0  0  0  0  0  0  0
    7.0500   62.8200   50.7900 H   0  0  0  0  0  0  0  0  0  0  0  0
    6.0000   62.2100   49.3400 C   0  0  0  0  0  0  0  0  0  0  0  0
    5.8800   63.2900   49.1100 H   0  0  0  0  0  0  0  0  0  0  0  0
    5.0500   61.7000   49.4200 H   0  0  0  0  0  0  0  0  0  0  0  0
    6.9100   61.6500   48.2500 C   0  0  0  0  0  0  0  0  0  0  0  0
    7.0700   60.6700   48.6500 H   0  0  0  0  0  0  0  0  0  0  0  0
    7.9100   62.0500   48.0000 H   0  0  0  0  0  0  0  0  0  0  0  0
    6.2900   61.8400   46.9000 C   0  0  0  0  0  0  0  0  0  0  0  0
    6.6700   62.8400   46.5700 H   0  0  0  0  0  0  0  0  0  0  0  0
    5.2100   61.8100   47.1000 H   0  0  0  0  0  0  0  0  0  0  0  0
    6.7300   60.8400   45.8600 C   0  0  0  0  0  0  0  0  0  0  0  0
    7.8100   60.8900   45.8600 H   0  0  0  0  0  0  0  0  0  0  0  0
    6.6200   61.2200   44.8300 H   0  0  0  0  0  0  0  0  0  0  0  0
    6.2200   59.4200   46.0600 C   0  0  0  0  0  0  0  0  0  0  0  0
    5.7600   59.2900   47.0600 H   0  0  0  0  0  0  0  0  0  0  0  0
    7.0200   58.6500   45.9600 H   0  0  0  0  0  0  0  0  0  0  0  0
    5.2400   59.1500   44.9600 C   0  0  0  0  0  0  0  0  0  0  0  0
    5.8600   59.0900   44.0300 H   0  0  0  0  0  0  0  0  0  0  0  0
    4.5000   59.9700   44.8600 H   0  0  0  0  0  0  0  0  0  0  0  0
    4.4100   57.9300   45.2200 C   0  0  0  0  0  0  0  0  0  0  0  0
    3.9800   57.8800   46.2200 H   0  0  0  0  0  0  0  0  0  0  0  0
    5.0900   57.0400   45.2000 H   0  0  0  0  0  0  0  0  0  0  0  0
    3.2300   57.9900   44.2100 C   0  0  0  0  0  0  0  0  0  0  0  0
    2.5800   58.8400   44.3700 H   0  0  0  0  0  0  0  0  0  0  0  0
    2.4800   57.1800   44.3400 H   0  0  0  0  0  0  0  0  0  0  0  0
    3.7100   58.1800   42.7700 C   0  0  0  0  0  0  0  0  0  0  0  0
    3.9500   59.1900   42.4700 H   0  0  0  0  0  0  0  0  0  0  0  0
    2.8000   57.8700   42.1700 H   0  0  0  0  0  0  0  0  0  0  0  0
    5.0800   57.5700   42.3500 C   0  0  0  0  0  0  0  0  0  0  0  0
    5.1500   56.9500   43.3000 H   0  0  0  0  0  0  0  0  0  0  0  0
    6.0000   57.2000   42.8400 H   0  0  0  0  0  0  0  0  0  0  0  0
    4.9500   56.9500   40.8500 C   0  0  0  0  0  0  0  0  0  0  0  0
    5.7600   56.1200   40.7200 H   0  0  0  0  0  0  0  0  0  0  0  0
    5.5600   57.6000   40.6100 H   0  0  0  0  0  0  0  0  0  0  0  0
    3.5500   56.7100   39.8300 C   0  0  0  0  0  0  0  0  0  0  0  0
    2.8000   55.8800   39.8400 H   0  0  0  0  0  0  0  0  0  0  0  0
    3.7600   55.7900   39.1600 H   0  0  0  0  0  0  0  0  0  0  0  0
    2.7100   57.3200   39.7300 H   0  0  0  0  0  0  0  0  0  0  0  0
  1 14  1  0  0  0  0
  1  6  1  0  0  0  0
  2  1  1  0  0  0  0
  2  4  1  0  0  0  0
  3  2  1  0  0  0  0
  5  2  1  0  0  0  0
  6  8  1  0  0  0  0
  7  6  1  0  0  0  0
  9  6  1  0  0  0  0
 10  1  1  0  0  0  0
 11 10  1  0  0  0  0
 12 10  1  0  0  0  0
 13 10  1  0  0  0  0
 14 15  1  0  0  0  0
 14 16  1  0  0  0  0
 17 19  1  0  0  0  0
 17 14  1  0  0  0  0
 18 17  1  0  0  0  0
 20 23  1  6  0  0  0
 20 21  1  0  0  0  0
 20 24  1  0  0  0  0
 22 20  2  0  0  0  0
 24 17  1  0  0  0  0
 25 27  1  0  0  0  0
 25 23  1  0  0  0  0
 25 26  1  0  0  0  0
 28 30  1  0  0  0  0
 28 80  1  0  0  0  0
 29 28  1  0  0  0  0
 30 31  1  6  0  0  0
 30 25  1  0  0  0  0
 32 34  1  0  0  0  0
 32 33  1  1  0  0  0
 32 30  1  0  0  0  0
 34 35  1  0  0  0  0
 36 32  1  0  0  0  0
 37 36  1  0  0  0  0
 38 39  1  0  0  0  0
 38 36  2  0  0  0  0
 40 38  1  0  0  0  0
 41 40  1  0  0  0  0
 42 40  1  0  0  0  0
 43 44  1  0  0  0  0
 43 40  1  0  0  0  0
 43 45  1  0  0  0  0
 46 43  1  0  0  0  0
 47 46  1  0  0  0  0
 48 46  1  0  0  0  0
 49 51  1  0  0  0  0
 49 46  1  0  0  0  0
 50 49  1  0  0  0  0
 52 53  1  0  0  0  0
 52 49  1  0  0  0  0
 54 52  1  0  0  0  0
 55 52  1  0  0  0  0
 56 55  1  0  0  0  0
 57 55  1  0  0  0  0
 58 60  1  0  0  0  0
 58 55  1  0  0  0  0
 59 58  1  0  0  0  0
 61 63  1  0  0  0  0
 61 58  1  0  0  0  0
 62 61  1  0  0  0  0
 64 66  1  0  0  0  0
 64 65  1  0  0  0  0
 64 61  1  0  0  0  0
 67 68  1  0  0  0  0
 67 64  1  0  0  0  0
 69 67  1  0  0  0  0
 70 72  1  0  0  0  0
 70 71  1  0  0  0  0
 70 67  1  0  0  0  0
 73 70  1  0  0  0  0
 74 73  1  0  0  0  0
 75 73  1  0  0  0  0
 76 77  1  0  0  0  0
 76 73  1  0  0  0  0
 78 76  1  0  0  0  0
 79 76  1  0  0  0  0
 80 81  2  0  0  0  0
 82 80  1  0  0  0  0
 82 83  1  0  0  0  0
 84 82  1  0  0  0  0
 85 82  1  0  0  0  0
 85 86  1  0  0  0  0
 87 85  1  0  0  0  0
 88 89  1  0  0  0  0
 88 85  1  0  0  0  0
 90 88  1  0  0  0  0
 91 93  1  0  0  0  0
 91 88  1  0  0  0  0
 92 91  1  0  0  0  0
 94 95  1  0  0  0  0
 94 91  1  0  0  0  0
 96 94  1  0  0  0  0
 97 99  1  0  0  0  0
 97 94  1  0  0  0  0
 98 97  1  0  0  0  0
100101  1  0  0  0  0
100 97  1  0  0  0  0
102100  1  0  0  0  0
103105  1  0  0  0  0
103100  1  0  0  0  0
104103  1  0  0  0  0
106108  1  0  0  0  0
106107  1  0  0  0  0
106103  1  0  0  0  0
109111  1  0  0  0  0
109106  1  0  0  0  0
110109  1  0  0  0  0
112113  1  0  0  0  0
112109  1  0  0  0  0
114112  1  0  0  0  0
115117  1  0  0  0  0
115112  1  0  0  0  0
116115  1  0  0  0  0
118121  1  0  0  0  0
118115  1  0  0  0  0
119118  1  0  0  0  0
120118  1  0  0  0  0
121122  1  0  0  0  0
123121  1  0  0  0  0
124127  1  0  0  0  0
124121  1  0  0  0  0
125124  1  0  0  0  0
126124  1  0  0  0  0
127128  1  0  0  0  0
129127  1  0  0  0  0
130132  1  0  0  0  0
130131  1  0  0  0  0
130127  1  0  0  0  0
133130  1  0  0  0  0
134133  1  0  0  0  0
135133  1  0  0  0  0
136133  1  0  0  0  0
136138  1  0  0  0  0
136137  1  0  0  0  0
139136  1  0  0  0  0
140139  1  0  0  0  0
141139  1  0  0  0  0
142143  1  0  0  0  0
142139  1  0  0  0  0
144142  1  0  0  0  0
145142  1  0  0  0  0
M  END
