POPI2B
 OpenBabel02161614153D

144138  0  0  1  0  0  0  0  0999 V2000
   27.2700   28.7400   62.6900 C   0  0  2  0  0  0  0  0  0  0  0  0
   28.2800   28.7600   62.2200 H   0  0  0  0  0  0  0  0  0  0  0  0
   27.0000   27.3000   62.5600 O   0  0  0  0  0  0  0  0  0  0  0  0
   27.2600   26.9100   61.7600 H   0  0  0  0  0  0  0  0  0  0  0  0
   27.0700   29.4400   64.2400 C   0  0  1  0  0  0  0  0  0  0  0  0
   27.9800   30.0500   64.2300 H   0  0  0  0  0  0  0  0  0  0  0  0
   26.4800   30.6800   65.0800 O   0  0  0  0  0  0  0  0  0  0  0  0
   24.6500   31.5800   65.5900 P   0  0  0  0  0  0  0  0  0  0  0  0
   25.1100   32.2600   66.8600 O   0  0  0  0  0  0  0  0  0  0  0  0
   23.3900   30.6900   65.9600 O   0  0  0  0  0  0  0  0  0  0  0  0
   23.9900   32.4600   64.5800 O   0  0  0  0  0  0  0  0  0  0  0  0
   25.7600   28.9300   65.0300 C   0  0  1  0  0  0  0  0  0  0  0  0
   26.3800   27.5100   64.4400 H   0  0  0  0  0  0  0  0  0  0  0  0
   25.4100   29.4900   66.9500 O   0  0  0  0  0  0  0  0  0  0  0  0
   26.1700   30.0800   66.7400 H   0  0  0  0  0  0  0  0  0  0  0  0
   24.9200   29.4100   63.9700 C   0  0  0  0  0  0  0  0  0  0  0  0
   25.3400   30.5400   63.5300 H   0  0  0  0  0  0  0  0  0  0  0  0
   25.0000   28.3700   65.1700 O   0  0  0  0  0  0  0  0  0  0  0  0
   27.3600   27.9400   66.4500 P   0  0  0  0  0  0  0  0  0  0  0  0
   27.3800   27.8000   67.9900 O   0  0  0  0  0  0  0  0  0  0  0  0
   27.5500   28.7800   68.0600 H   0  0  0  0  0  0  0  0  0  0  0  0
   28.7600   27.9800   65.8400 O   0  0  0  0  0  0  0  0  0  0  0  0
   27.8100   29.3800   66.8600 O   0  0  0  0  0  0  0  0  0  0  0  0
   24.8700   29.1600   62.5800 C   0  0  1  0  0  0  0  0  0  0  0  0
   24.5100   28.1800   62.6200 H   0  0  0  0  0  0  0  0  0  0  0  0
   23.8600   30.1300   62.1100 O   0  0  0  0  0  0  0  0  0  0  0  0
   23.4900   30.5900   62.9000 H   0  0  0  0  0  0  0  0  0  0  0  0
   26.2300   29.4500   61.9900 C   0  0  2  0  0  0  0  0  0  0  0  0
   26.6400   30.5100   62.1600 H   0  0  0  0  0  0  0  0  0  0  0  0
   26.9500   30.0700   59.5400 P   0  0  2  0  0  0  0  0  0  0  0  0
   28.4000   29.8400   59.7500 O   0  0  0  0  0  0  0  0  0  0  0  0
   26.4400   31.4400   59.6000 O   0  0  0  0  0  0  0  0  0  0  0  0
   26.1800   29.1100   60.6100 O   0  0  0  0  0  0  0  0  0  0  0  0
   26.5500   29.4000   58.1600 O   0  0  0  0  0  0  0  0  0  0  0  0
   27.0500   28.1000   57.8100 C   0  0  0  0  0  0  0  0  0  0  0  0
   26.2900   27.3200   58.0600 H   0  0  0  0  0  0  0  0  0  0  0  0
   28.0000   27.8600   58.3300 H   0  0  0  0  0  0  0  0  0  0  0  0
   27.4300   27.9700   56.3100 C   0  0  2  0  0  0  0  0  0  0  0  0
   28.2100   28.7300   56.0500 H   0  0  0  0  0  0  0  0  0  0  0  0
   26.2500   28.0700   55.5100 O   0  0  0  0  0  0  0  0  0  0  0  0
   25.9700   29.2900   55.1200 C   0  0  0  0  0  0  0  0  0  0  0  0
   26.6800   30.2800   55.2500 O   0  0  0  0  0  0  0  0  0  0  0  0
   24.6800   29.2800   54.3300 C   0  0  0  0  0  0  0  0  0  0  0  0
   23.9100   29.8600   54.8700 H   0  0  0  0  0  0  0  0  0  0  0  0
   24.3200   28.2500   54.1600 H   0  0  0  0  0  0  0  0  0  0  0  0
   28.0400   26.5800   56.0400 C   0  0  0  0  0  0  0  0  0  0  0  0
   29.0300   26.4800   56.5200 H   0  0  0  0  0  0  0  0  0  0  0  0
   27.3400   25.8500   56.5000 H   0  0  0  0  0  0  0  0  0  0  0  0
   28.0800   26.3200   54.6400 O   0  0  0  0  0  0  0  0  0  0  0  0
   28.3700   25.0600   54.4100 C   0  0  0  0  0  0  0  0  0  0  0  0
   28.8600   24.2700   55.1500 O   0  0  0  0  0  0  0  0  0  0  0  0
   28.3400   24.7400   53.1200 C   0  0  0  0  0  0  0  0  0  0  0  0
   28.0800   25.8000   52.5500 H   0  0  0  0  0  0  0  0  0  0  0  0
   27.4300   24.8300   52.4100 H   0  0  0  0  0  0  0  0  0  0  0  0
   24.9200   29.9800   52.9800 C   0  0  0  0  0  0  0  0  0  0  0  0
   25.4500   30.9600   53.1200 H   0  0  0  0  0  0  0  0  0  0  0  0
   23.9200   30.2000   52.5600 H   0  0  0  0  0  0  0  0  0  0  0  0
   25.7600   29.1500   52.0000 C   0  0  0  0  0  0  0  0  0  0  0  0
   26.7600   28.9400   52.4600 H   0  0  0  0  0  0  0  0  0  0  0  0
   25.9300   29.7600   51.0800 H   0  0  0  0  0  0  0  0  0  0  0  0
   25.1200   27.8500   51.5100 C   0  0  0  0  0  0  0  0  0  0  0  0
   24.1500   28.1100   51.0400 H   0  0  0  0  0  0  0  0  0  0  0  0
   24.8700   27.1900   52.3800 H   0  0  0  0  0  0  0  0  0  0  0  0
   26.0600   27.1200   50.5100 C   0  0  0  0  0  0  0  0  0  0  0  0
   26.0200   26.0200   50.6400 H   0  0  0  0  0  0  0  0  0  0  0  0
   27.1000   27.4100   50.7800 H   0  0  0  0  0  0  0  0  0  0  0  0
   25.8400   27.4300   49.0100 C   0  0  0  0  0  0  0  0  0  0  0  0
   26.0500   28.5000   48.8000 H   0  0  0  0  0  0  0  0  0  0  0  0
   24.8000   27.2700   48.7000 H   0  0  0  0  0  0  0  0  0  0  0  0
   26.6900   26.5800   48.0900 C   0  0  0  0  0  0  0  0  0  0  0  0
   26.4300   26.7800   47.0300 H   0  0  0  0  0  0  0  0  0  0  0  0
   26.5300   25.4900   48.2700 H   0  0  0  0  0  0  0  0  0  0  0  0
   28.0600   27.0400   48.3500 C   0  0  0  0  0  0  0  0  0  0  0  0
   28.5000   26.7000   49.2600 H   0  0  0  0  0  0  0  0  0  0  0  0
   28.7700   27.8100   47.5600 C   0  0  0  0  0  0  0  0  0  0  0  0
   29.8400   27.7400   47.7300 H   0  0  0  0  0  0  0  0  0  0  0  0
   28.4100   28.4000   46.2000 C   0  0  0  0  0  0  0  0  0  0  0  0
   27.5100   27.9800   45.7700 H   0  0  0  0  0  0  0  0  0  0  0  0
   28.9700   28.1100   45.2800 H   0  0  0  0  0  0  0  0  0  0  0  0
   28.6200   29.8300   46.0400 C   0  0  0  0  0  0  0  0  0  0  0  0
   29.6000   30.1600   46.3200 H   0  0  0  0  0  0  0  0  0  0  0  0
   28.0100   30.3300   46.7800 H   0  0  0  0  0  0  0  0  0  0  0  0
   28.4400   30.1600   44.5800 C   0  0  0  0  0  0  0  0  0  0  0  0
   28.7500   29.3300   43.8900 H   0  0  0  0  0  0  0  0  0  0  0  0
   29.1300   31.0300   44.4500 H   0  0  0  0  0  0  0  0  0  0  0  0
   27.0100   30.4100   44.2200 C   0  0  0  0  0  0  0  0  0  0  0  0
   26.7900   31.3300   44.7300 H   0  0  0  0  0  0  0  0  0  0  0  0
   26.3100   29.6800   44.6400 H   0  0  0  0  0  0  0  0  0  0  0  0
   26.7500   30.5400   42.7600 C   0  0  0  0  0  0  0  0  0  0  0  0
   25.7400   30.9500   42.5100 H   0  0  0  0  0  0  0  0  0  0  0  0
   26.8400   29.5200   42.3400 H   0  0  0  0  0  0  0  0  0  0  0  0
   27.7400   31.4700   42.1800 C   0  0  0  0  0  0  0  0  0  0  0  0
   28.8200   31.3500   42.3800 H   0  0  0  0  0  0  0  0  0  0  0  0
   27.5800   32.4500   42.4300 H   0  0  0  0  0  0  0  0  0  0  0  0
   27.4100   31.6700   40.8200 C   0  0  0  0  0  0  0  0  0  0  0  0
   28.1800   32.4700   40.6400 H   0  0  0  0  0  0  0  0  0  0  0  0
   26.4700   32.0700   40.3700 H   0  0  0  0  0  0  0  0  0  0  0  0
   27.6400   30.2700   40.4200 C   0  0  0  0  0  0  0  0  0  0  0  0
   27.1500   30.5400   39.5300 H   0  0  0  0  0  0  0  0  0  0  0  0
   28.7100   30.0100   40.3200 H   0  0  0  0  0  0  0  0  0  0  0  0
   27.0100   29.4500   40.1000 H   0  0  0  0  0  0  0  0  0  0  0  0
   30.0900   23.5700   52.5400 C   0  0  0  0  0  0  0  0  0  0  0  0
   29.7700   22.8600   53.2500 H   0  0  0  0  0  0  0  0  0  0  0  0
   31.0100   23.7100   52.2800 H   0  0  0  0  0  0  0  0  0  0  0  0
   30.2400   23.3300   50.1100 C   0  0  0  0  0  0  0  0  0  0  0  0
   31.1200   23.4800   50.5000 H   0  0  0  0  0  0  0  0  0  0  0  0
   30.5100   24.3000   49.4600 H   0  0  0  0  0  0  0  0  0  0  0  0
   28.8100   23.6800   49.2500 C   0  0  0  0  0  0  0  0  0  0  0  0
   27.9500   24.4000   49.6600 H   0  0  0  0  0  0  0  0  0  0  0  0
   28.2200   22.7000   49.3800 H   0  0  0  0  0  0  0  0  0  0  0  0
   28.8900   23.0700   48.2000 C   0  0  0  0  0  0  0  0  0  0  0  0
   29.8500   22.5500   48.1000 H   0  0  0  0  0  0  0  0  0  0  0  0
   29.1100   24.1600   48.3700 H   0  0  0  0  0  0  0  0  0  0  0  0
   27.5300   22.8800   47.5700 C   0  0  0  0  0  0  0  0  0  0  0  0
   26.8300   23.4600   48.2200 H   0  0  0  0  0  0  0  0  0  0  0  0
   27.5200   21.7900   47.6800 H   0  0  0  0  0  0  0  0  0  0  0  0
   27.3500   23.4000   46.1800 C   0  0  0  0  0  0  0  0  0  0  0  0
   28.0400   22.8600   45.5900 H   0  0  0  0  0  0  0  0  0  0  0  0
   27.3800   24.4900   45.9700 H   0  0  0  0  0  0  0  0  0  0  0  0
   26.2200   23.2600   45.3800 C   0  0  0  0  0  0  0  0  0  0  0  0
   25.5900   23.9400   46.0100 H   0  0  0  0  0  0  0  0  0  0  0  0
   26.2900   22.1600   45.4600 H   0  0  0  0  0  0  0  0  0  0  0  0
   26.5000   23.7600   44.0000 C   0  0  0  0  0  0  0  0  0  0  0  0
   26.1100   22.9400   43.4100 H   0  0  0  0  0  0  0  0  0  0  0  0
   27.4300   23.8000   43.4900 H   0  0  0  0  0  0  0  0  0  0  0  0
   26.0500   25.1500   43.7700 C   0  0  0  0  0  0  0  0  0  0  0  0
   26.7500   25.9400   44.1300 H   0  0  0  0  0  0  0  0  0  0  0  0
   25.0500   25.2900   44.2200 H   0  0  0  0  0  0  0  0  0  0  0  0
   26.0000   25.2900   42.2900 C   0  0  0  0  0  0  0  0  0  0  0  0
   25.4500   26.2300   42.2600 H   0  0  0  0  0  0  0  0  0  0  0  0
   25.3700   24.4800   41.8500 H   0  0  0  0  0  0  0  0  0  0  0  0
   27.4300   25.3300   41.6900 C   0  0  0  0  0  0  0  0  0  0  0  0
   28.1200   25.6700   42.4700 H   0  0  0  0  0  0  0  0  0  0  0  0
   27.7300   26.0200   40.9300 H   0  0  0  0  0  0  0  0  0  0  0  0
   27.7700   24.1100   40.8800 C   0  0  0  0  0  0  0  0  0  0  0  0
   27.0700   23.7100   40.1400 H   0  0  0  0  0  0  0  0  0  0  0  0
   27.5500   23.4100   41.6700 H   0  0  0  0  0  0  0  0  0  0  0  0
   29.1100   24.1900   40.1200 C   0  0  0  0  0  0  0  0  0  0  0  0
   29.9300   24.6500   40.7400 H   0  0  0  0  0  0  0  0  0  0  0  0
   29.0500   24.8900   39.2900 H   0  0  0  0  0  0  0  0  0  0  0  0
   29.5000   22.8500   39.4600 C   0  0  0  0  0  0  0  0  0  0  0  0
   30.3400   22.3700   39.9800 H   0  0  0  0  0  0  0  0  0  0  0  0
   28.8200   22.0000   39.4500 H   0  0  0  0  0  0  0  0  0  0  0  0
   29.9000   23.0300   38.4800 H   0  0  0  0  0  0  0  0  0  0  0  0
  1  2  1  6  0  0  0
  1  5  1  0  0  0  0
  3  1  1  0  0  0  0
  4  3  1  0  0  0  0
  5  6  1  1  0  0  0
  5 12  1  0  0  0  0
  5  7  1  0  0  0  0
  7  8  1  0  0  0  0
  8 10  1  0  0  0  0
  8  9  1  0  0  0  0
 11  8  2  0  0  0  0
 12 18  1  6  0  0  0
 15 14  1  0  0  0  0
 16 12  1  0  0  0  0
 17 16  1  0  0  0  0
 19 23  1  0  0  0  0
 19 20  1  0  0  0  0
 20 21  1  0  0  0  0
 22 19  1  0  0  0  0
 24 25  1  6  0  0  0
 24 16  1  0  0  0  0
 26 24  1  0  0  0  0
 26 27  1  0  0  0  0
 28 29  1  1  0  0  0
 28 24  1  0  0  0  0
 28  1  1  0  0  0  0
 30 34  1  6  0  0  0
 30 32  2  0  0  0  0
 30 31  1  0  0  0  0
 30 33  1  0  0  0  0
 33 28  1  0  0  0  0
 35 36  1  0  0  0  0
 35 34  1  0  0  0  0
 35 37  1  0  0  0  0
 38 39  1  6  0  0  0
 38 35  1  0  0  0  0
 40 38  1  0  0  0  0
 41 42  2  0  0  0  0
 41 40  1  0  0  0  0
 43 44  1  0  0  0  0
 43 41  1  0  0  0  0
 45 43  1  0  0  0  0
 46 38  1  0  0  0  0
 46 48  1  0  0  0  0
 46 47  1  0  0  0  0
 49 46  1  0  0  0  0
 50 49  1  0  0  0  0
 50 51  2  0  0  0  0
 52 50  1  0  0  0  0
 53 52  1  0  0  0  0
 54 52  1  0  0  0  0
 55 56  1  0  0  0  0
 55 43  1  0  0  0  0
 57 55  1  0  0  0  0
 58 59  1  0  0  0  0
 58 55  1  0  0  0  0
 60 58  1  0  0  0  0
 61 58  1  0  0  0  0
 61 63  1  0  0  0  0
 62 61  1  0  0  0  0
 64 65  1  0  0  0  0
 64 66  1  0  0  0  0
 64 61  1  0  0  0  0
 67 64  1  0  0  0  0
 68 67  1  0  0  0  0
 69 67  1  0  0  0  0
 70 72  1  0  0  0  0
 70 73  1  0  0  0  0
 70 67  1  0  0  0  0
 71 70  1  0  0  0  0
 73 74  1  0  0  0  0
 75 76  1  0  0  0  0
 75 73  1  0  0  0  0
 77 75  1  0  0  0  0
 78 77  1  0  0  0  0
 79 77  1  0  0  0  0
 80 77  1  0  0  0  0
 80 81  1  0  0  0  0
 80 82  1  0  0  0  0
 83 80  1  0  0  0  0
 84 83  1  0  0  0  0
 85 83  1  0  0  0  0
 86 83  1  0  0  0  0
 86 88  1  0  0  0  0
 86 87  1  0  0  0  0
 89 86  1  0  0  0  0
 90 89  1  0  0  0  0
 91 89  1  0  0  0  0
 92 93  1  0  0  0  0
 92 94  1  0  0  0  0
 92 89  1  0  0  0  0
 95 92  1  0  0  0  0
 96 95  1  0  0  0  0
 97 95  1  0  0  0  0
 98 95  1  0  0  0  0
 99 98  1  0  0  0  0
100 98  1  0  0  0  0
101 98  1  0  0  0  0
102103  1  0  0  0  0
104102  1  0  0  0  0
105106  1  0  0  0  0
107105  1  0  0  0  0
108110  1  0  0  0  0
108109  1  0  0  0  0
111108  1  0  0  0  0
112111  1  0  0  0  0
113108  1  0  0  0  0
114116  1  0  0  0  0
114111  1  0  0  0  0
114115  1  0  0  0  0
117114  1  0  0  0  0
118117  1  0  0  0  0
119117  1  0  0  0  0
120122  1  0  0  0  0
120121  1  0  0  0  0
120117  1  0  0  0  0
123120  1  0  0  0  0
124123  1  0  0  0  0
125123  1  0  0  0  0
126123  1  0  0  0  0
126127  1  0  0  0  0
126128  1  0  0  0  0
129126  1  0  0  0  0
130129  1  0  0  0  0
131129  1  0  0  0  0
132129  1  0  0  0  0
132133  1  0  0  0  0
134132  1  0  0  0  0
135137  1  0  0  0  0
135132  1  0  0  0  0
136135  1  0  0  0  0
138139  1  0  0  0  0
138135  1  0  0  0  0
140138  1  0  0  0  0
141142  1  0  0  0  0
141138  1  0  0  0  0
143141  1  0  0  0  0
144141  1  0  0  0  0
M  END
