SLPE
 OpenBabel02161614153D

129128  0  0  1  0  0  0  0  0999 V2000
   21.3900   13.4800   56.1500 N   0  0  0  0  0  0  0  0  0  0  0  0
   20.9700   13.4700   55.2000 H   0  0  0  0  0  0  0  0  0  0  0  0
   20.6400   13.5000   56.8600 H   0  0  0  0  0  0  0  0  0  0  0  0
   22.0100   14.3100   56.2400 H   0  0  0  0  0  0  0  0  0  0  0  0
   22.2000   12.2300   56.4200 C   0  0  0  0  0  0  0  0  0  0  0  0
   23.1300   12.3200   55.8200 H   0  0  0  0  0  0  0  0  0  0  0  0
   21.6000   11.3600   56.0900 H   0  0  0  0  0  0  0  0  0  0  0  0
   22.5700   12.0500   57.9100 C   0  0  0  0  0  0  0  0  0  0  0  0
   23.1300   12.9100   58.3400 H   0  0  0  0  0  0  0  0  0  0  0  0
   23.2900   11.1900   57.9100 H   0  0  0  0  0  0  0  0  0  0  0  0
   21.3800   10.4300   59.5600 P   0  0  1  0  0  0  0  0  0  0  0  0
   22.7500   10.0800   60.0200 O   0  0  0  0  0  0  0  0  0  0  0  0
   20.3800   10.4700   60.6400 O   0  0  0  0  0  0  0  0  0  0  0  0
   21.4200   11.8100   58.7300 O   0  0  0  0  0  0  0  0  0  0  0  0
   20.9900    9.4000   58.4400 O   0  0  0  0  0  0  0  0  0  0  0  0
   19.7000    9.4300   57.8300 C   0  0  0  0  0  0  0  0  0  0  0  0
   18.9000    9.2500   58.5900 H   0  0  0  0  0  0  0  0  0  0  0  0
   19.5000   10.4100   57.3400 H   0  0  0  0  0  0  0  0  0  0  0  0
   19.6500    8.3600   56.7100 C   0  0  2  0  0  0  0  0  0  0  0  0
   20.0100    7.4100   57.1500 H   0  0  0  0  0  0  0  0  0  0  0  0
   20.5500    8.8300   55.6700 O   0  0  0  0  0  0  0  0  0  0  0  0
   20.8000    7.9100   54.7500 C   0  0  0  0  0  0  0  0  0  0  0  0
   20.2800    6.8100   54.7200 O   0  0  0  0  0  0  0  0  0  0  0  0
   21.7900    8.4900   53.7300 C   0  0  0  0  0  0  0  0  0  0  0  0
   21.7400    9.6000   53.7800 H   0  0  0  0  0  0  0  0  0  0  0  0
   22.8200    8.2100   54.0000 H   0  0  0  0  0  0  0  0  0  0  0  0
   18.1800    8.1300   56.1900 C   0  0  0  0  0  0  0  0  0  0  0  0
   17.4800    7.9700   57.0400 H   0  0  0  0  0  0  0  0  0  0  0  0
   18.1300    7.1900   55.5900 H   0  0  0  0  0  0  0  0  0  0  0  0
   17.7200    9.2800   55.4800 O   0  0  0  0  0  0  0  0  0  0  0  0
   17.7300    9.1800   54.1800 C   0  0  0  0  0  0  0  0  0  0  0  0
   17.9100    8.1700   53.5200 O   0  0  0  0  0  0  0  0  0  0  0  0
   17.6900   10.5700   53.5900 C   0  0  0  0  0  0  0  0  0  0  0  0
   17.5500   11.3400   54.3700 H   0  0  0  0  0  0  0  0  0  0  0  0
   16.8600   10.6500   52.8900 H   0  0  0  0  0  0  0  0  0  0  0  0
   21.4300    8.0400   52.3100 C   0  0  0  0  0  0  0  0  0  0  0  0
   20.3400    8.2100   52.1300 H   0  0  0  0  0  0  0  0  0  0  0  0
   21.6200    6.9500   52.2000 H   0  0  0  0  0  0  0  0  0  0  0  0
   22.2000    8.8100   51.2400 C   0  0  0  0  0  0  0  0  0  0  0  0
   23.2800    8.8200   51.5200 H   0  0  0  0  0  0  0  0  0  0  0  0
   21.8600    9.8600   51.2100 H   0  0  0  0  0  0  0  0  0  0  0  0
   22.0200    8.2200   49.8300 C   0  0  0  0  0  0  0  0  0  0  0  0
   22.3500    7.1800   49.8600 H   0  0  0  0  0  0  0  0  0  0  0  0
   22.6900    8.7700   49.1300 H   0  0  0  0  0  0  0  0  0  0  0  0
   20.5700    8.2200   49.3000 C   0  0  0  0  0  0  0  0  0  0  0  0
   20.0100    9.0800   49.7300 H   0  0  0  0  0  0  0  0  0  0  0  0
   20.0900    7.2700   49.6400 H   0  0  0  0  0  0  0  0  0  0  0  0
   20.4800    8.2600   47.7700 C   0  0  0  0  0  0  0  0  0  0  0  0
   20.9900    7.3600   47.3800 H   0  0  0  0  0  0  0  0  0  0  0  0
   21.0400    9.1500   47.4100 H   0  0  0  0  0  0  0  0  0  0  0  0
   19.0300    8.3600   47.2400 C   0  0  0  0  0  0  0  0  0  0  0  0
   18.5200    9.1500   47.8300 H   0  0  0  0  0  0  0  0  0  0  0  0
   18.4900    7.4200   47.4900 H   0  0  0  0  0  0  0  0  0  0  0  0
   18.9500    8.6300   45.7500 C   0  0  0  0  0  0  0  0  0  0  0  0
   18.9600    7.7400   45.1100 H   0  0  0  0  0  0  0  0  0  0  0  0
   18.8400    9.8200   45.1400 C   0  0  0  0  0  0  0  0  0  0  0  0
   18.8100    9.8300   44.0400 H   0  0  0  0  0  0  0  0  0  0  0  0
   18.7500   11.1900   45.7800 C   0  0  0  0  0  0  0  0  0  0  0  0
   19.7300   11.4900   46.2200 H   0  0  0  0  0  0  0  0  0  0  0  0
   18.0400   11.1300   46.6300 H   0  0  0  0  0  0  0  0  0  0  0  0
   18.2700   12.2400   44.8000 C   0  0  0  0  0  0  0  0  0  0  0  0
   17.1800   12.4100   44.8500 H   0  0  0  0  0  0  0  0  0  0  0  0
   18.9700   12.9700   43.9000 C   0  0  0  0  0  0  0  0  0  0  0  0
   18.4000   13.6600   43.2500 H   0  0  0  0  0  0  0  0  0  0  0  0
   20.4500   12.9300   43.6200 C   0  0  0  0  0  0  0  0  0  0  0  0
   20.9700   12.2200   44.3000 H   0  0  0  0  0  0  0  0  0  0  0  0
   20.8900   13.9300   43.8100 H   0  0  0  0  0  0  0  0  0  0  0  0
   20.8200   12.5600   42.1700 C   0  0  0  0  0  0  0  0  0  0  0  0
   21.9200   12.5700   42.0200 H   0  0  0  0  0  0  0  0  0  0  0  0
   20.4000   13.3200   41.4700 H   0  0  0  0  0  0  0  0  0  0  0  0
   20.3300   11.1700   41.7700 C   0  0  0  0  0  0  0  0  0  0  0  0
   19.2100   11.2200   41.7100 H   0  0  0  0  0  0  0  0  0  0  0  0
   20.6400   10.3600   42.4400 H   0  0  0  0  0  0  0  0  0  0  0  0
   20.8000   10.7500   40.4200 C   0  0  0  0  0  0  0  0  0  0  0  0
   20.9500   11.6400   39.7500 H   0  0  0  0  0  0  0  0  0  0  0  0
   19.9700   10.0400   40.1600 H   0  0  0  0  0  0  0  0  0  0  0  0
   21.9900    9.9300   40.1200 C   0  0  0  0  0  0  0  0  0  0  0  0
   21.9400    9.8100   38.9900 H   0  0  0  0  0  0  0  0  0  0  0  0
   22.0000    8.9500   40.6100 H   0  0  0  0  0  0  0  0  0  0  0  0
   22.8500   10.5100   40.4400 H   0  0  0  0  0  0  0  0  0  0  0  0
   18.9900   10.7600   52.8100 C   0  0  0  0  0  0  0  0  0  0  0  0
   19.0400   10.0100   51.9800 H   0  0  0  0  0  0  0  0  0  0  0  0
   19.8700   10.6000   53.4600 H   0  0  0  0  0  0  0  0  0  0  0  0
   18.9900   12.1400   52.1800 C   0  0  0  0  0  0  0  0  0  0  0  0
   18.8500   12.9300   52.9500 H   0  0  0  0  0  0  0  0  0  0  0  0
   18.1100   12.1700   51.4900 H   0  0  0  0  0  0  0  0  0  0  0  0
   20.2700   12.3500   51.4000 C   0  0  0  0  0  0  0  0  0  0  0  0
   20.5400   11.3700   50.9500 H   0  0  0  0  0  0  0  0  0  0  0  0
   21.0800   12.6300   52.1100 H   0  0  0  0  0  0  0  0  0  0  0  0
   20.1100   13.3400   50.2600 C   0  0  0  0  0  0  0  0  0  0  0  0
   19.8200   14.3200   50.6800 H   0  0  0  0  0  0  0  0  0  0  0  0
   19.2700   13.0300   49.5900 H   0  0  0  0  0  0  0  0  0  0  0  0
   21.3700   13.4900   49.4000 C   0  0  0  0  0  0  0  0  0  0  0  0
   22.2100   13.8800   50.0200 H   0  0  0  0  0  0  0  0  0  0  0  0
   21.0800   14.2400   48.6500 H   0  0  0  0  0  0  0  0  0  0  0  0
   21.7900   12.2000   48.6500 C   0  0  0  0  0  0  0  0  0  0  0  0
   20.9000   11.8900   48.0600 H   0  0  0  0  0  0  0  0  0  0  0  0
   22.0400   11.4400   49.4100 H   0  0  0  0  0  0  0  0  0  0  0  0
   22.9900   12.2800   47.6800 C   0  0  0  0  0  0  0  0  0  0  0  0
   23.8900   12.6900   48.2000 H   0  0  0  0  0  0  0  0  0  0  0  0
   22.7100   12.9000   46.8000 H   0  0  0  0  0  0  0  0  0  0  0  0
   23.3000   11.0600   46.8400 C   0  0  0  0  0  0  0  0  0  0  0  0
   22.2800   10.6900   46.6000 H   0  0  0  0  0  0  0  0  0  0  0  0
   23.8600   10.3300   47.4400 H   0  0  0  0  0  0  0  0  0  0  0  0
   24.0100   11.4200   45.5100 C   0  0  0  0  0  0  0  0  0  0  0  0
   25.0400   11.7900   45.7000 H   0  0  0  0  0  0  0  0  0  0  0  0
   23.4500   12.2500   45.0100 H   0  0  0  0  0  0  0  0  0  0  0  0
   24.0300   10.2500   44.5200 C   0  0  0  0  0  0  0  0  0  0  0  0
   24.8300    9.5300   44.8000 H   0  0  0  0  0  0  0  0  0  0  0  0
   24.2400   10.6200   43.4900 H   0  0  0  0  0  0  0  0  0  0  0  0
   22.7000    9.5100   44.5000 C   0  0  0  0  0  0  0  0  0  0  0  0
   21.8400   10.1600   44.2400 H   0  0  0  0  0  0  0  0  0  0  0  0
   22.5200    9.0300   45.4900 H   0  0  0  0  0  0  0  0  0  0  0  0
   22.7100    8.3800   43.5200 C   0  0  0  0  0  0  0  0  0  0  0  0
   23.5600    7.7700   43.9000 H   0  0  0  0  0  0  0  0  0  0  0  0
   22.9400    8.6800   42.4800 H   0  0  0  0  0  0  0  0  0  0  0  0
   21.4300    7.5800   43.5900 C   0  0  0  0  0  0  0  0  0  0  0  0
   20.6100    7.9100   42.9200 H   0  0  0  0  0  0  0  0  0  0  0  0
   21.0900    7.3400   44.6200 H   0  0  0  0  0  0  0  0  0  0  0  0
   21.8900    6.2500   43.2300 C   0  0  0  0  0  0  0  0  0  0  0  0
   22.7600    6.1000   43.8600 H   0  0  0  0  0  0  0  0  0  0  0  0
   22.4800    6.3300   42.3000 H   0  0  0  0  0  0  0  0  0  0  0  0
   20.8800    5.1400   43.5700 C   0  0  0  0  0  0  0  0  0  0  0  0
   20.5400    5.0500   44.6000 H   0  0  0  0  0  0  0  0  0  0  0  0
   21.1000    4.0500   43.3700 H   0  0  0  0  0  0  0  0  0  0  0  0
   19.8100    5.0800   42.8000 C   0  0  0  0  0  0  0  0  0  0  0  0
   19.1600    4.4900   43.4800 H   0  0  0  0  0  0  0  0  0  0  0  0
   19.9700    4.3500   41.9800 H   0  0  0  0  0  0  0  0  0  0  0  0
   19.4600    6.0600   42.4200 H   0  0  0  0  0  0  0  0  0  0  0  0
  1  4  1  0  0  0  0
  1  5  1  0  0  0  0
  1  3  1  0  0  0  0
  2  1  1  0  0  0  0
  5  8  1  0  0  0  0
  6  5  1  0  0  0  0
  7  5  1  0  0  0  0
  8 10  1  0  0  0  0
  8  9  1  0  0  0  0
  8 14  1  0  0  0  0
 11 15  1  6  0  0  0
 11 12  2  0  0  0  0
 11 13  1  0  0  0  0
 14 11  1  0  0  0  0
 16 15  1  0  0  0  0
 16 17  1  0  0  0  0
 18 16  1  0  0  0  0
 19 20  1  1  0  0  0
 19 16  1  0  0  0  0
 21 19  1  0  0  0  0
 22 21  1  0  0  0  0
 23 22  2  0  0  0  0
 24 25  1  0  0  0  0
 24 26  1  0  0  0  0
 24 22  1  0  0  0  0
 27 19  1  0  0  0  0
 27 28  1  0  0  0  0
 29 27  1  0  0  0  0
 30 27  1  0  0  0  0
 31 30  1  0  0  0  0
 32 31  2  0  0  0  0
 33 31  1  0  0  0  0
 33 34  1  0  0  0  0
 35 33  1  0  0  0  0
 36 24  1  0  0  0  0
 37 36  1  0  0  0  0
 38 36  1  0  0  0  0
 39 40  1  0  0  0  0
 39 36  1  0  0  0  0
 41 39  1  0  0  0  0
 42 43  1  0  0  0  0
 42 39  1  0  0  0  0
 44 42  1  0  0  0  0
 45 47  1  0  0  0  0
 45 46  1  0  0  0  0
 45 42  1  0  0  0  0
 48 45  1  0  0  0  0
 49 48  1  0  0  0  0
 50 48  1  0  0  0  0
 51 53  1  0  0  0  0
 51 48  1  0  0  0  0
 51 52  1  0  0  0  0
 54 51  1  0  0  0  0
 55 54  1  0  0  0  0
 56 54  2  0  0  0  0
 56 58  1  0  0  0  0
 57 56  1  0  0  0  0
 58 59  1  0  0  0  0
 58 60  1  0  0  0  0
 61 62  1  0  0  0  0
 61 58  1  0  0  0  0
 63 61  2  0  0  0  0
 64 63  1  0  0  0  0
 65 67  1  0  0  0  0
 65 63  1  0  0  0  0
 65 66  1  0  0  0  0
 68 65  1  0  0  0  0
 69 68  1  0  0  0  0
 70 68  1  0  0  0  0
 71 68  1  0  0  0  0
 71 73  1  0  0  0  0
 72 71  1  0  0  0  0
 74 71  1  0  0  0  0
 75 74  1  0  0  0  0
 76 74  1  0  0  0  0
 77 74  1  0  0  0  0
 77 80  1  0  0  0  0
 77 79  1  0  0  0  0
 78 77  1  0  0  0  0
 81 83  1  0  0  0  0
 81 33  1  0  0  0  0
 82 81  1  0  0  0  0
 84 81  1  0  0  0  0
 84 85  1  0  0  0  0
 86 84  1  0  0  0  0
 87 89  1  0  0  0  0
 87 84  1  0  0  0  0
 88 87  1  0  0  0  0
 90 91  1  0  0  0  0
 90 87  1  0  0  0  0
 92 90  1  0  0  0  0
 93 94  1  0  0  0  0
 93 90  1  0  0  0  0
 95 93  1  0  0  0  0
 96 93  1  0  0  0  0
 96 98  1  0  0  0  0
 97 96  1  0  0  0  0
 99100  1  0  0  0  0
 99 96  1  0  0  0  0
101 99  1  0  0  0  0
102104  1  0  0  0  0
102 99  1  0  0  0  0
103102  1  0  0  0  0
105106  1  0  0  0  0
105102  1  0  0  0  0
107105  1  0  0  0  0
108109  1  0  0  0  0
108105  1  0  0  0  0
110108  1  0  0  0  0
111108  1  0  0  0  0
111113  1  0  0  0  0
112111  1  0  0  0  0
114117  1  0  0  0  0
114115  1  0  0  0  0
114111  1  0  0  0  0
116114  1  0  0  0  0
117119  1  0  0  0  0
118117  1  0  0  0  0
120123  1  0  0  0  0
120117  1  0  0  0  0
120121  1  0  0  0  0
122120  1  0  0  0  0
123124  1  0  0  0  0
125123  1  0  0  0  0
126127  1  0  0  0  0
126123  1  0  0  0  0
128126  1  0  0  0  0
129126  1  0  0  0  0
M  END
