LNBCL1
 OpenBabel02161614153D

239238  0  0  1  0  0  0  0  0999 V2000
   40.3600   40.9200   60.2400 C   0  0  0  0  0  0  0  0  0  0  0  0
   40.1000   41.1500   59.1900 H   0  0  0  0  0  0  0  0  0  0  0  0
   41.4300   41.1900   60.4600 H   0  0  0  0  0  0  0  0  0  0  0  0
   40.9100   38.3800   59.7000 P   0  0  2  0  0  0  0  0  0  0  0  0
   40.7300   37.0500   60.3700 O   0  0  0  0  0  0  0  0  0  0  0  0
   42.3200   38.7600   59.4900 O   0  0  0  0  0  0  0  0  0  0  0  0
   40.1100   39.5300   60.4600 O   0  0  0  0  0  0  0  0  0  0  0  0
   40.2200   38.3200   58.3000 O   0  0  0  0  0  0  0  0  0  0  0  0
   38.9700   38.8500   57.8900 C   0  0  0  0  0  0  0  0  0  0  0  0
   38.1700   38.6500   58.6400 H   0  0  0  0  0  0  0  0  0  0  0  0
   39.0300   39.9600   57.8000 H   0  0  0  0  0  0  0  0  0  0  0  0
   39.4400   41.7700   61.1300 C   0  0  1  0  0  0  0  0  0  0  0  0
   38.4200   41.3100   61.1100 H   0  0  0  0  0  0  0  0  0  0  0  0
   39.9700   41.8000   62.4600 O   0  0  0  0  0  0  0  0  0  0  0  0
   39.3500   42.2900   62.9800 H   0  0  0  0  0  0  0  0  0  0  0  0
   39.2100   43.2200   60.6400 C   0  0  0  0  0  0  0  0  0  0  0  0
   40.1600   43.8100   60.5800 H   0  0  0  0  0  0  0  0  0  0  0  0
   38.5800   43.6700   61.4500 H   0  0  0  0  0  0  0  0  0  0  0  0
   38.0300   44.6200   58.9200 P   0  0  1  0  0  0  0  0  0  0  0  0
   37.0100   44.5200   57.7300 O   0  0  0  0  0  0  0  0  0  0  0  0
   36.2000   44.0100   57.8200 H   0  0  0  0  0  0  0  0  0  0  0  0
   37.4700   45.3800   60.0500 O   0  0  0  0  0  0  0  0  0  0  0  0
   38.4900   43.2000   59.3900 O   0  0  0  0  0  0  0  0  0  0  0  0
   39.3700   45.2900   58.4100 O   0  0  0  0  0  0  0  0  0  0  0  0
   40.4900   44.5300   57.9600 C   0  0  0  0  0  0  0  0  0  0  0  0
   40.3600   43.4300   58.0800 H   0  0  0  0  0  0  0  0  0  0  0  0
   41.3400   44.8500   58.6000 H   0  0  0  0  0  0  0  0  0  0  0  0
   40.8800   44.8000   56.4700 C   0  0  2  0  0  0  0  0  0  0  0  0
   41.0200   45.8900   56.3400 H   0  0  0  0  0  0  0  0  0  0  0  0
   39.8200   44.3100   55.6100 O   0  0  0  0  0  0  0  0  0  0  0  0
   39.8500   44.7000   54.3400 C   0  0  0  0  0  0  0  0  0  0  0  0
   40.6900   45.4300   53.8400 O   0  0  0  0  0  0  0  0  0  0  0  0
   38.6400   44.1400   53.5800 C   0  0  0  0  0  0  0  0  0  0  0  0
   37.8000   43.9700   54.2900 H   0  0  0  0  0  0  0  0  0  0  0  0
   38.9400   43.2000   53.0900 H   0  0  0  0  0  0  0  0  0  0  0  0
   42.2600   44.1700   56.0900 C   0  0  0  0  0  0  0  0  0  0  0  0
   43.0400   44.6400   56.7200 H   0  0  0  0  0  0  0  0  0  0  0  0
   42.5200   44.4400   55.0400 H   0  0  0  0  0  0  0  0  0  0  0  0
   42.1800   42.7500   56.2500 O   0  0  0  0  0  0  0  0  0  0  0  0
   43.1400   42.1000   56.9200 C   0  0  0  0  0  0  0  0  0  0  0  0
   44.0500   42.6600   57.5200 O   0  0  0  0  0  0  0  0  0  0  0  0
   42.9300   40.6100   56.7100 C   0  0  0  0  0  0  0  0  0  0  0  0
   41.8600   40.3800   56.5400 H   0  0  0  0  0  0  0  0  0  0  0  0
   43.2900   40.0300   57.6000 H   0  0  0  0  0  0  0  0  0  0  0  0
   38.6300   38.2600   56.5000 C   0  0  2  0  0  0  0  0  0  0  0  0
   37.9100   37.4100   56.7000 H   0  0  0  0  0  0  0  0  0  0  0  0
   39.9300   37.8400   55.9500 O   0  0  0  0  0  0  0  0  0  0  0  0
   39.7200   37.0500   54.9600 C   0  0  0  0  0  0  0  0  0  0  0  0
   38.6000   36.8600   54.5300 O   0  0  0  0  0  0  0  0  0  0  0  0
   40.9600   36.1900   54.6100 C   0  0  0  0  0  0  0  0  0  0  0  0
   40.7400   35.1500   54.2500 H   0  0  0  0  0  0  0  0  0  0  0  0
   41.5200   36.0300   55.5500 H   0  0  0  0  0  0  0  0  0  0  0  0
   37.8900   39.3100   55.5800 C   0  0  0  0  0  0  0  0  0  0  0  0
   37.0800   39.8000   56.1600 H   0  0  0  0  0  0  0  0  0  0  0  0
   38.6800   40.0500   55.3300 H   0  0  0  0  0  0  0  0  0  0  0  0
   37.2400   38.7700   54.4200 O   0  0  0  0  0  0  0  0  0  0  0  0
   37.0000   39.5400   53.4200 C   0  0  0  0  0  0  0  0  0  0  0  0
   37.3100   40.7100   53.3300 O   0  0  0  0  0  0  0  0  0  0  0  0
   36.2400   38.7300   52.3800 C   0  0  0  0  0  0  0  0  0  0  0  0
   35.4000   39.2700   51.9400 H   0  0  0  0  0  0  0  0  0  0  0  0
   35.8500   37.7600   52.8000 H   0  0  0  0  0  0  0  0  0  0  0  0
   38.1500   45.1500   52.5400 C   0  0  0  0  0  0  0  0  0  0  0  0
   38.9700   45.4400   51.8500 H   0  0  0  0  0  0  0  0  0  0  0  0
   37.8200   46.0200   53.1400 H   0  0  0  0  0  0  0  0  0  0  0  0
   36.9600   44.6700   51.7000 C   0  0  0  0  0  0  0  0  0  0  0  0
   36.1300   44.3200   52.3600 H   0  0  0  0  0  0  0  0  0  0  0  0
   37.3500   43.8100   51.1200 H   0  0  0  0  0  0  0  0  0  0  0  0
   36.4200   45.7500   50.7500 C   0  0  0  0  0  0  0  0  0  0  0  0
   37.2800   46.1800   50.2000 H   0  0  0  0  0  0  0  0  0  0  0  0
   35.9600   46.5600   51.3600 H   0  0  0  0  0  0  0  0  0  0  0  0
   35.4500   45.2400   49.6700 C   0  0  0  0  0  0  0  0  0  0  0  0
   35.0700   46.0900   49.0500 H   0  0  0  0  0  0  0  0  0  0  0  0
   34.5800   44.7500   50.1500 H   0  0  0  0  0  0  0  0  0  0  0  0
   36.1100   44.2100   48.7400 C   0  0  0  0  0  0  0  0  0  0  0  0
   36.2400   43.3100   49.3700 H   0  0  0  0  0  0  0  0  0  0  0  0
   37.1300   44.5000   48.3900 H   0  0  0  0  0  0  0  0  0  0  0  0
   35.2300   43.9100   47.5300 C   0  0  0  0  0  0  0  0  0  0  0  0
   35.1800   44.8100   46.8700 H   0  0  0  0  0  0  0  0  0  0  0  0
   34.2000   43.7300   47.9300 H   0  0  0  0  0  0  0  0  0  0  0  0
   35.7400   42.7000   46.8100 C   0  0  0  0  0  0  0  0  0  0  0  0
   35.9700   41.8400   47.4400 H   0  0  0  0  0  0  0  0  0  0  0  0
   35.9600   42.5600   45.5100 C   0  0  0  0  0  0  0  0  0  0  0  0
   36.2900   41.5700   45.1700 H   0  0  0  0  0  0  0  0  0  0  0  0
   35.7400   43.5900   44.4300 C   0  0  0  0  0  0  0  0  0  0  0  0
   36.6800   43.8000   43.8800 H   0  0  0  0  0  0  0  0  0  0  0  0
   35.2200   44.5100   44.7100 H   0  0  0  0  0  0  0  0  0  0  0  0
   34.7600   43.0400   43.5200 C   0  0  0  0  0  0  0  0  0  0  0  0
   33.7100   43.3200   43.5000 H   0  0  0  0  0  0  0  0  0  0  0  0
   35.0800   42.1900   42.6700 C   0  0  0  0  0  0  0  0  0  0  0  0
   34.1100   41.6600   42.6800 H   0  0  0  0  0  0  0  0  0  0  0  0
   36.4500   41.6200   42.4800 C   0  0  0  0  0  0  0  0  0  0  0  0
   37.2700   41.7200   43.2200 H   0  0  0  0  0  0  0  0  0  0  0  0
   36.9200   41.8300   41.4800 H   0  0  0  0  0  0  0  0  0  0  0  0
   35.8800   40.3000   42.5600 C   0  0  0  0  0  0  0  0  0  0  0  0
   35.5300   39.5000   43.2000 H   0  0  0  0  0  0  0  0  0  0  0  0
   36.9900   39.8300   42.5900 H   0  0  0  0  0  0  0  0  0  0  0  0
   34.5600   40.1400   41.4100 C   0  0  0  0  0  0  0  0  0  0  0  0
   33.6000   39.9600   41.7000 H   0  0  0  0  0  0  0  0  0  0  0  0
   34.2800   39.1700   41.0900 H   0  0  0  0  0  0  0  0  0  0  0  0
   34.6300   40.5200   40.0400 C   0  0  0  0  0  0  0  0  0  0  0  0
   35.0900   39.6700   39.5400 H   0  0  0  0  0  0  0  0  0  0  0  0
   35.3500   41.3200   40.1500 H   0  0  0  0  0  0  0  0  0  0  0  0
   34.1700   39.7400   38.9600 C   0  0  0  0  0  0  0  0  0  0  0  0
   34.2500   38.5300   38.7800 H   0  0  0  0  0  0  0  0  0  0  0  0
   34.1800   40.2500   38.0000 H   0  0  0  0  0  0  0  0  0  0  0  0
   33.2700   40.1400   39.1500 H   0  0  0  0  0  0  0  0  0  0  0  0
   43.7600   40.1700   55.5000 C   0  0  0  0  0  0  0  0  0  0  0  0
   43.8900   39.0800   55.6400 H   0  0  0  0  0  0  0  0  0  0  0  0
   44.7400   40.6900   55.5500 H   0  0  0  0  0  0  0  0  0  0  0  0
   43.1900   40.3500   54.0800 C   0  0  0  0  0  0  0  0  0  0  0  0
   42.1000   40.1700   54.0400 H   0  0  0  0  0  0  0  0  0  0  0  0
   43.6700   39.5400   53.4700 H   0  0  0  0  0  0  0  0  0  0  0  0
   43.4800   41.7000   53.3900 C   0  0  0  0  0  0  0  0  0  0  0  0
   44.4400   42.1600   53.7300 H   0  0  0  0  0  0  0  0  0  0  0  0
   42.6700   42.3900   53.6800 H   0  0  0  0  0  0  0  0  0  0  0  0
   43.4800   41.4800   51.8700 C   0  0  0  0  0  0  0  0  0  0  0  0
   42.6100   40.8400   51.6300 H   0  0  0  0  0  0  0  0  0  0  0  0
   44.3900   40.8800   51.6200 H   0  0  0  0  0  0  0  0  0  0  0  0
   43.4400   42.7200   50.9500 C   0  0  0  0  0  0  0  0  0  0  0  0
   43.5100   42.3600   49.9000 H   0  0  0  0  0  0  0  0  0  0  0  0
   44.3600   43.3300   51.1100 H   0  0  0  0  0  0  0  0  0  0  0  0
   42.1300   43.5600   50.9900 C   0  0  0  0  0  0  0  0  0  0  0  0
   42.2200   44.3900   50.2500 H   0  0  0  0  0  0  0  0  0  0  0  0
   42.0400   44.0200   52.0000 H   0  0  0  0  0  0  0  0  0  0  0  0
   40.8900   42.7300   50.7600 C   0  0  0  0  0  0  0  0  0  0  0  0
   40.6100   42.1200   51.6300 H   0  0  0  0  0  0  0  0  0  0  0  0
   40.0700   42.6800   49.6900 C   0  0  0  0  0  0  0  0  0  0  0  0
   39.3000   41.9100   49.7400 H   0  0  0  0  0  0  0  0  0  0  0  0
   40.1000   43.4300   48.3700 C   0  0  0  0  0  0  0  0  0  0  0  0
   41.1300   43.7900   48.1400 H   0  0  0  0  0  0  0  0  0  0  0  0
   39.5100   44.3800   48.4500 H   0  0  0  0  0  0  0  0  0  0  0  0
   39.4500   42.6200   47.2600 C   0  0  0  0  0  0  0  0  0  0  0  0
   38.7100   41.8600   47.5600 H   0  0  0  0  0  0  0  0  0  0  0  0
   39.5700   42.8200   45.9500 C   0  0  0  0  0  0  0  0  0  0  0  0
   38.9500   42.2100   45.2600 H   0  0  0  0  0  0  0  0  0  0  0  0
   40.4000   43.9200   45.3300 C   0  0  0  0  0  0  0  0  0  0  0  0
   41.1100   43.4800   44.6100 H   0  0  0  0  0  0  0  0  0  0  0  0
   41.0500   44.4200   46.0900 H   0  0  0  0  0  0  0  0  0  0  0  0
   39.4600   44.9200   44.7100 C   0  0  0  0  0  0  0  0  0  0  0  0
   38.7600   45.4000   45.4100 H   0  0  0  0  0  0  0  0  0  0  0  0
   39.4300   45.2600   43.4100 C   0  0  0  0  0  0  0  0  0  0  0  0
   38.6800   45.9800   43.0300 H   0  0  0  0  0  0  0  0  0  0  0  0
   40.3400   44.6900   42.3500 C   0  0  0  0  0  0  0  0  0  0  0  0
   41.0500   43.9400   42.7500 H   0  0  0  0  0  0  0  0  0  0  0  0
   40.9500   45.5200   41.9500 H   0  0  0  0  0  0  0  0  0  0  0  0
   39.4900   44.0400   41.2600 C   0  0  0  0  0  0  0  0  0  0  0  0
   40.0900   43.5600   40.4600 H   0  0  0  0  0  0  0  0  0  0  0  0
   38.8000   44.7600   40.7800 H   0  0  0  0  0  0  0  0  0  0  0  0
   38.9000   43.2400   41.7500 H   0  0  0  0  0  0  0  0  0  0  0  0
   41.8500   36.8600   53.6100 C   0  0  0  0  0  0  0  0  0  0  0  0
   42.8000   36.3000   53.5500 H   0  0  0  0  0  0  0  0  0  0  0  0
   42.0900   37.8600   54.0100 H   0  0  0  0  0  0  0  0  0  0  0  0
   41.2000   36.8300   52.2300 C   0  0  0  0  0  0  0  0  0  0  0  0
   40.2900   37.4500   52.2600 H   0  0  0  0  0  0  0  0  0  0  0  0
   40.9200   35.7800   51.9600 H   0  0  0  0  0  0  0  0  0  0  0  0
   42.1300   37.3600   51.1500 C   0  0  0  0  0  0  0  0  0  0  0  0
   43.0600   36.7500   51.1600 H   0  0  0  0  0  0  0  0  0  0  0  0
   42.4000   38.4200   51.3600 H   0  0  0  0  0  0  0  0  0  0  0  0
   41.5700   37.2100   49.7400 C   0  0  0  0  0  0  0  0  0  0  0  0
   40.7400   37.9200   49.5600 H   0  0  0  0  0  0  0  0  0  0  0  0
   41.1400   36.1800   49.6600 H   0  0  0  0  0  0  0  0  0  0  0  0
   42.7100   37.3500   48.7100 C   0  0  0  0  0  0  0  0  0  0  0  0
   42.3800   36.8400   47.7800 H   0  0  0  0  0  0  0  0  0  0  0  0
   43.5900   36.7700   49.0800 H   0  0  0  0  0  0  0  0  0  0  0  0
   43.1400   38.7900   48.3700 C   0  0  0  0  0  0  0  0  0  0  0  0
   43.9800   38.7400   47.6500 H   0  0  0  0  0  0  0  0  0  0  0  0
   43.5100   39.3600   49.2500 H   0  0  0  0  0  0  0  0  0  0  0  0
   41.9900   39.5500   47.7800 C   0  0  0  0  0  0  0  0  0  0  0  0
   41.3000   40.0000   48.5100 H   0  0  0  0  0  0  0  0  0  0  0  0
   41.8000   39.7700   46.4700 C   0  0  0  0  0  0  0  0  0  0  0  0
   40.8700   40.2700   46.1800 H   0  0  0  0  0  0  0  0  0  0  0  0
   42.6700   39.3400   45.3100 C   0  0  0  0  0  0  0  0  0  0  0  0
   42.0800   38.7400   44.5700 H   0  0  0  0  0  0  0  0  0  0  0  0
   43.5200   38.6900   45.6100 H   0  0  0  0  0  0  0  0  0  0  0  0
   43.2800   40.6000   44.7500 C   0  0  0  0  0  0  0  0  0  0  0  0
   43.7000   41.2900   45.4700 H   0  0  0  0  0  0  0  0  0  0  0  0
   43.2100   41.0300   43.5100 C   0  0  0  0  0  0  0  0  0  0  0  0
   43.7200   41.9400   43.1300 H   0  0  0  0  0  0  0  0  0  0  0  0
   42.5200   40.2900   42.5000 C   0  0  0  0  0  0  0  0  0  0  0  0
   42.5100   39.1700   42.5900 H   0  0  0  0  0  0  0  0  0  0  0  0
   43.3900   40.5300   41.8600 H   0  0  0  0  0  0  0  0  0  0  0  0
   41.1300   40.8100   42.0400 C   0  0  0  0  0  0  0  0  0  0  0  0
   40.5100   40.7300   42.9600 H   0  0  0  0  0  0  0  0  0  0  0  0
   41.2100   41.8900   41.8000 H   0  0  0  0  0  0  0  0  0  0  0  0
   40.3400   40.0600   40.9000 C   0  0  0  0  0  0  0  0  0  0  0  0
   40.3600   38.9700   41.1500 H   0  0  0  0  0  0  0  0  0  0  0  0
   39.2700   40.3200   40.9500 H   0  0  0  0  0  0  0  0  0  0  0  0
   40.7000   40.4600   39.4300 C   0  0  0  0  0  0  0  0  0  0  0  0
   41.5400   40.0500   38.9400 H   0  0  0  0  0  0  0  0  0  0  0  0
   41.0300   41.5000   39.4000 H   0  0  0  0  0  0  0  0  0  0  0  0
   39.9700   39.9400   38.2400 C   0  0  0  0  0  0  0  0  0  0  0  0
   39.8800   38.8400   38.1100 H   0  0  0  0  0  0  0  0  0  0  0  0
   40.4500   40.3900   37.3400 H   0  0  0  0  0  0  0  0  0  0  0  0
   39.0300   40.3700   38.3900 H   0  0  0  0  0  0  0  0  0  0  0  0
   37.2800   38.3600   51.3600 C   0  0  0  0  0  0  0  0  0  0  0  0
   36.8000   37.6900   50.7200 H   0  0  0  0  0  0  0  0  0  0  0  0
   38.1200   37.8200   51.8500 H   0  0  0  0  0  0  0  0  0  0  0  0
   37.7600   39.3300   50.3100 C   0  0  0  0  0  0  0  0  0  0  0  0
   38.5100   38.8100   49.6700 H   0  0  0  0  0  0  0  0  0  0  0  0
   38.1500   40.1900   50.8300 H   0  0  0  0  0  0  0  0  0  0  0  0
   36.8200   40.0000   49.3800 C   0  0  0  0  0  0  0  0  0  0  0  0
   37.3900   40.7200   48.7800 H   0  0  0  0  0  0  0  0  0  0  0  0
   35.9400   40.5200   49.8700 H   0  0  0  0  0  0  0  0  0  0  0  0
   36.4600   39.1200   48.2700 C   0  0  0  0  0  0  0  0  0  0  0  0
   35.5600   39.8200   48.2200 H   0  0  0  0  0  0  0  0  0  0  0  0
   36.2900   38.0400   48.4600 H   0  0  0  0  0  0  0  0  0  0  0  0
   37.0500   39.0500   46.8600 C   0  0  0  0  0  0  0  0  0  0  0  0
   37.0500   40.0700   46.4800 H   0  0  0  0  0  0  0  0  0  0  0  0
   36.4400   38.5700   46.0400 H   0  0  0  0  0  0  0  0  0  0  0  0
   38.1800   38.1400   46.8500 C   0  0  0  0  0  0  0  0  0  0  0  0
   37.8200   37.1100   47.1600 H   0  0  0  0  0  0  0  0  0  0  0  0
   38.8700   38.5200   47.6100 H   0  0  0  0  0  0  0  0  0  0  0  0
   38.7200   38.4700   45.4900 C   0  0  0  0  0  0  0  0  0  0  0  0
   39.2000   39.4400   45.4400 H   0  0  0  0  0  0  0  0  0  0  0  0
   38.4500   38.0200   44.3000 C   0  0  0  0  0  0  0  0  0  0  0  0
   39.2300   38.2000   43.5300 H   0  0  0  0  0  0  0  0  0  0  0  0
   37.5300   36.9700   43.8400 C   0  0  0  0  0  0  0  0  0  0  0  0
   37.1300   35.9700   44.4100 H   0  0  0  0  0  0  0  0  0  0  0  0
   38.3600   36.6600   43.1300 H   0  0  0  0  0  0  0  0  0  0  0  0
   36.2900   36.9800   43.3200 C   0  0  0  0  0  0  0  0  0  0  0  0
   35.6300   36.9100   44.2400 H   0  0  0  0  0  0  0  0  0  0  0  0
   36.2800   36.4900   42.0400 C   0  0  0  0  0  0  0  0  0  0  0  0
   35.3700   36.1000   41.8400 H   0  0  0  0  0  0  0  0  0  0  0  0
   37.4500   35.9300   41.0000 C   0  0  0  0  0  0  0  0  0  0  0  0
   37.0900   35.0500   40.5100 H   0  0  0  0  0  0  0  0  0  0  0  0
   38.2500   35.0600   41.0800 H   0  0  0  0  0  0  0  0  0  0  0  0
   38.5400   36.7500   40.4700 C   0  0  0  0  0  0  0  0  0  0  0  0
   38.8500   37.3500   41.3200 H   0  0  0  0  0  0  0  0  0  0  0  0
   38.1200   37.4100   39.7800 H   0  0  0  0  0  0  0  0  0  0  0  0
   39.4800   36.0300   39.5600 C   0  0  0  0  0  0  0  0  0  0  0  0
   40.0600   35.4700   40.3200 H   0  0  0  0  0  0  0  0  0  0  0  0
   40.0100   36.8300   39.0300 H   0  0  0  0  0  0  0  0  0  0  0  0
   38.9900   35.0100   38.5300 C   0  0  0  0  0  0  0  0  0  0  0  0
   38.6000   34.0900   39.0200 H   0  0  0  0  0  0  0  0  0  0  0  0
   39.8500   34.6900   37.9400 H   0  0  0  0  0  0  0  0  0  0  0  0
   38.3400   35.4100   37.2400 C   0  0  0  0  0  0  0  0  0  0  0  0
   38.0100   36.4300   37.0800 H   0  0  0  0  0  0  0  0  0  0  0  0
   37.3600   35.1500   37.3900 H   0  0  0  0  0  0  0  0  0  0  0  0
   38.0200   34.6000   36.6200 H   0  0  0  0  0  0  0  0  0  0  0  0
  1  7  1  0  0  0  0
  1  3  1  0  0  0  0
  1 12  1  0  0  0  0
  2  1  1  0  0  0  0
  4  8  1  6  0  0  0
  4  5  1  0  0  0  0
  4  7  1  0  0  0  0
  6  4  2  0  0  0  0
  9  8  1  0  0  0  0
  9 10  1  0  0  0  0
 11  9  1  0  0  0  0
 12 13  1  1  0  0  0
 12 14  1  0  0  0  0
 14 15  1  0  0  0  0
 16 12  1  0  0  0  0
 16 18  1  0  0  0  0
 17 16  1  0  0  0  0
 19 20  1  6  0  0  0
 19 23  1  0  0  0  0
 19 22  2  0  0  0  0
 20 21  1  0  0  0  0
 23 16  1  0  0  0  0
 24 19  1  0  0  0  0
 25 26  1  0  0  0  0
 25 24  1  0  0  0  0
 25 27  1  0  0  0  0
 28 29  1  6  0  0  0
 28 25  1  0  0  0  0
 30 28  1  0  0  0  0
 31 30  1  0  0  0  0
 32 31  2  0  0  0  0
 33 34  1  0  0  0  0
 33 31  1  0  0  0  0
 35 33  1  0  0  0  0
 36 39  1  0  0  0  0
 36 28  1  0  0  0  0
 36 37  1  0  0  0  0
 38 36  1  0  0  0  0
 39 40  1  0  0  0  0
 40 41  2  0  0  0  0
 42 40  1  0  0  0  0
 42 44  1  0  0  0  0
 43 42  1  0  0  0  0
 45 46  1  1  0  0  0
 45  9  1  0  0  0  0
 47 45  1  0  0  0  0
 48 47  1  0  0  0  0
 49 48  2  0  0  0  0
 50 48  1  0  0  0  0
 50 52  1  0  0  0  0
 51 50  1  0  0  0  0
 53 54  1  0  0  0  0
 53 45  1  0  0  0  0
 55 53  1  0  0  0  0
 56 53  1  0  0  0  0
 57 56  1  0  0  0  0
 58 57  2  0  0  0  0
 59 61  1  0  0  0  0
 59 57  1  0  0  0  0
 60 59  1  0  0  0  0
 62 64  1  0  0  0  0
 62 33  1  0  0  0  0
 63 62  1  0  0  0  0
 65 66  1  0  0  0  0
 65 62  1  0  0  0  0
 67 65  1  0  0  0  0
 68 70  1  0  0  0  0
 68 65  1  0  0  0  0
 69 68  1  0  0  0  0
 71 73  1  0  0  0  0
 71 68  1  0  0  0  0
 72 71  1  0  0  0  0
 74 75  1  0  0  0  0
 74 71  1  0  0  0  0
 76 74  1  0  0  0  0
 77 79  1  0  0  0  0
 77 74  1  0  0  0  0
 78 77  1  0  0  0  0
 80 81  1  0  0  0  0
 80 77  1  0  0  0  0
 82 80  2  0  0  0  0
 83 82  1  0  0  0  0
 84 86  1  0  0  0  0
 84 82  1  0  0  0  0
 85 84  1  0  0  0  0
 87 84  1  0  0  0  0
 88 87  1  0  0  0  0
 89 90  1  0  0  0  0
 89 87  1  0  0  0  0
 91 94  1  0  0  0  0
 91 89  1  0  0  0  0
 91 92  1  0  0  0  0
 93 91  1  0  0  0  0
 94 96  1  0  0  0  0
 94 95  1  0  0  0  0
 97 98  1  0  0  0  0
 97 94  1  0  0  0  0
 99 97  1  0  0  0  0
100102  1  0  0  0  0
100 97  1  0  0  0  0
101100  1  0  0  0  0
103106  1  0  0  0  0
103100  1  0  0  0  0
104103  1  0  0  0  0
105103  1  0  0  0  0
107109  1  0  0  0  0
107108  1  0  0  0  0
107 42  1  0  0  0  0
110107  1  0  0  0  0
111110  1  0  0  0  0
112110  1  0  0  0  0
113115  1  0  0  0  0
113114  1  0  0  0  0
113110  1  0  0  0  0
116113  1  0  0  0  0
117116  1  0  0  0  0
118116  1  0  0  0  0
119122  1  0  0  0  0
119121  1  0  0  0  0
119116  1  0  0  0  0
120119  1  0  0  0  0
122124  1  0  0  0  0
123122  1  0  0  0  0
125122  1  0  0  0  0
125126  1  0  0  0  0
127128  1  0  0  0  0
127125  2  0  0  0  0
129131  1  0  0  0  0
129127  1  0  0  0  0
130129  1  0  0  0  0
132133  1  0  0  0  0
132129  1  0  0  0  0
134132  2  0  0  0  0
135134  1  0  0  0  0
136134  1  0  0  0  0
136138  1  0  0  0  0
137136  1  0  0  0  0
139136  1  0  0  0  0
139140  1  0  0  0  0
141139  2  0  0  0  0
142141  1  0  0  0  0
143144  1  0  0  0  0
143141  1  0  0  0  0
145143  1  0  0  0  0
146149  1  0  0  0  0
146143  1  0  0  0  0
147146  1  0  0  0  0
148146  1  0  0  0  0
150152  1  0  0  0  0
150 50  1  0  0  0  0
151150  1  0  0  0  0
153154  1  0  0  0  0
153150  1  0  0  0  0
155153  1  0  0  0  0
156157  1  0  0  0  0
156158  1  0  0  0  0
156153  1  0  0  0  0
159156  1  0  0  0  0
160159  1  0  0  0  0
161159  1  0  0  0  0
162164  1  0  0  0  0
162159  1  0  0  0  0
163162  1  0  0  0  0
165162  1  0  0  0  0
165167  1  0  0  0  0
166165  1  0  0  0  0
168165  1  0  0  0  0
168169  1  0  0  0  0
170168  2  0  0  0  0
171170  1  0  0  0  0
172174  1  0  0  0  0
172170  1  0  0  0  0
173172  1  0  0  0  0
175172  1  0  0  0  0
175176  1  0  0  0  0
177175  2  0  0  0  0
178177  1  0  0  0  0
179180  1  0  0  0  0
179177  1  0  0  0  0
181179  1  0  0  0  0
182179  1  0  0  0  0
182183  1  0  0  0  0
184182  1  0  0  0  0
185187  1  0  0  0  0
185186  1  0  0  0  0
185182  1  0  0  0  0
188185  1  0  0  0  0
189188  1  0  0  0  0
190188  1  0  0  0  0
191194  1  0  0  0  0
191188  1  0  0  0  0
192191  1  0  0  0  0
193191  1  0  0  0  0
195197  1  0  0  0  0
195 59  1  0  0  0  0
196195  1  0  0  0  0
198200  1  0  0  0  0
198195  1  0  0  0  0
199198  1  0  0  0  0
201203  1  0  0  0  0
201198  1  0  0  0  0
202201  1  0  0  0  0
204206  1  0  0  0  0
204201  1  0  0  0  0
205204  1  0  0  0  0
207204  1  0  0  0  0
208207  1  0  0  0  0
209207  1  0  0  0  0
210207  1  0  0  0  0
210211  1  0  0  0  0
210212  1  0  0  0  0
213210  1  0  0  0  0
214213  1  0  0  0  0
215213  1  0  0  0  0
216215  1  0  0  0  0
217215  1  0  0  0  0
217218  1  0  0  0  0
219217  1  0  0  0  0
220217  1  0  0  0  0
220221  1  0  0  0  0
222220  1  0  0  0  0
223222  1  0  0  0  0
224226  1  0  0  0  0
224222  1  0  0  0  0
225224  1  0  0  0  0
227224  1  0  0  0  0
227228  1  0  0  0  0
229227  1  0  0  0  0
230231  1  0  0  0  0
230227  1  0  0  0  0
232230  1  0  0  0  0
233234  1  0  0  0  0
233230  1  0  0  0  0
235233  1  0  0  0  0
236238  1  0  0  0  0
236233  1  0  0  0  0
237236  1  0  0  0  0
239236  1  0  0  0  0
M  END
