POPE
 OpenBabel02161614153D

125122  0  0  1  0  0  0  0  0999 V2000
   22.1800   42.5400   58.8900 N   0  0  0  0  0  0  0  0  0  0  0  0
   22.4300   43.4200   59.3700 H   0  0  0  0  0  0  0  0  0  0  0  0
   22.7400   42.4300   58.0200 H   0  0  0  0  0  0  0  0  0  0  0  0
   21.1900   42.7400   58.6400 H   0  0  0  0  0  0  0  0  0  0  0  0
   22.2000   41.3600   59.7500 C   0  0  0  0  0  0  0  0  0  0  0  0
   22.2000   41.6000   60.7700 H   0  0  0  0  0  0  0  0  0  0  0  0
   23.2100   40.9400   59.7200 H   0  0  0  0  0  0  0  0  0  0  0  0
   20.9200   40.5800   59.4700 C   0  0  0  0  0  0  0  0  0  0  0  0
   19.9700   41.1400   59.5600 H   0  0  0  0  0  0  0  0  0  0  0  0
   20.8300   39.7600   60.2200 H   0  0  0  0  0  0  0  0  0  0  0  0
   22.2500   39.1900   57.8600 P   0  0  1  0  0  0  0  0  0  0  0  0
   22.6600   38.5500   59.1300 O   0  0  0  0  0  0  0  0  0  0  0  0
   23.1700   40.1500   57.2000 O   0  0  0  0  0  0  0  0  0  0  0  0
   21.5400   38.2300   56.8800 O   0  0  0  0  0  0  0  0  0  0  0  0
   20.9900   40.1100   58.1400 O   0  0  0  0  0  0  0  0  0  0  0  0
   21.0000   38.6900   55.6500 C   0  0  0  0  0  0  0  0  0  0  0  0
   21.2600   39.7500   55.3800 H   0  0  0  0  0  0  0  0  0  0  0  0
   19.8800   38.6700   55.6800 H   0  0  0  0  0  0  0  0  0  0  0  0
   21.4800   37.6800   54.5800 C   0  0  2  0  0  0  0  0  0  0  0  0
   21.0500   36.7000   54.8900 H   0  0  0  0  0  0  0  0  0  0  0  0
   22.9000   37.6000   54.4700 O   0  0  0  0  0  0  0  0  0  0  0  0
   23.2700   36.5800   53.7000 C   0  0  0  0  0  0  0  0  0  0  0  0
   22.5200   35.7000   53.3200 O   0  0  0  0  0  0  0  0  0  0  0  0
   24.7400   36.7000   53.3500 C   0  0  0  0  0  0  0  0  0  0  0  0
   25.2700   36.1300   54.1400 H   0  0  0  0  0  0  0  0  0  0  0  0
   25.0600   37.7500   53.4600 H   0  0  0  0  0  0  0  0  0  0  0  0
   20.8900   38.0400   53.2500 C   0  0  0  0  0  0  0  0  0  0  0  0
   19.8600   38.3800   53.5600 H   0  0  0  0  0  0  0  0  0  0  0  0
   20.9000   37.3000   52.4300 H   0  0  0  0  0  0  0  0  0  0  0  0
   21.6000   39.1000   52.7800 O   0  0  0  0  0  0  0  0  0  0  0  0
   20.7800   39.8800   52.1200 C   0  0  0  0  0  0  0  0  0  0  0  0
   19.6500   39.6800   51.8000 O   0  0  0  0  0  0  0  0  0  0  0  0
   21.5400   40.9600   51.7100 C   0  0  0  0  0  0  0  0  0  0  0  0
   21.8900   40.2900   50.8400 H   0  0  0  0  0  0  0  0  0  0  0  0
   22.4800   40.9300   52.3600 H   0  0  0  0  0  0  0  0  0  0  0  0
   25.1000   36.0800   51.9800 C   0  0  0  0  0  0  0  0  0  0  0  0
   24.5700   35.1000   51.8400 H   0  0  0  0  0  0  0  0  0  0  0  0
   26.1900   35.8600   51.9700 H   0  0  0  0  0  0  0  0  0  0  0  0
   24.8700   37.0100   50.7700 C   0  0  0  0  0  0  0  0  0  0  0  0
   23.7900   37.1200   50.5800 H   0  0  0  0  0  0  0  0  0  0  0  0
   25.3400   36.5200   49.8800 H   0  0  0  0  0  0  0  0  0  0  0  0
   25.5600   38.3700   50.9900 C   0  0  0  0  0  0  0  0  0  0  0  0
   26.6300   38.1800   51.2500 H   0  0  0  0  0  0  0  0  0  0  0  0
   25.0800   38.8900   51.8400 H   0  0  0  0  0  0  0  0  0  0  0  0
   25.5000   39.3400   49.8200 C   0  0  0  0  0  0  0  0  0  0  0  0
   24.4700   39.7400   49.7700 H   0  0  0  0  0  0  0  0  0  0  0  0
   25.7100   38.7900   48.8700 H   0  0  0  0  0  0  0  0  0  0  0  0
   26.4900   40.5200   49.9800 C   0  0  0  0  0  0  0  0  0  0  0  0
   27.5300   40.1200   50.0700 H   0  0  0  0  0  0  0  0  0  0  0  0
   26.2600   41.0400   50.9400 H   0  0  0  0  0  0  0  0  0  0  0  0
   26.3700   41.5300   48.8400 C   0  0  0  0  0  0  0  0  0  0  0  0
   26.9700   42.4500   48.9900 H   0  0  0  0  0  0  0  0  0  0  0  0
   25.3000   41.8500   48.7600 H   0  0  0  0  0  0  0  0  0  0  0  0
   26.8600   40.7700   47.6600 C   0  0  0  0  0  0  0  0  0  0  0  0
   27.9300   40.5600   47.6400 H   0  0  0  0  0  0  0  0  0  0  0  0
   26.1600   40.4300   46.5900 C   0  0  0  0  0  0  0  0  0  0  0  0
   26.5200   39.8300   45.7500 H   0  0  0  0  0  0  0  0  0  0  0  0
   24.8200   40.7100   46.3500 C   0  0  0  0  0  0  0  0  0  0  0  0
   24.3900   40.5600   47.3200 H   0  0  0  0  0  0  0  0  0  0  0  0
   24.5600   39.8100   45.7800 H   0  0  0  0  0  0  0  0  0  0  0  0
   24.6800   42.0800   45.6300 C   0  0  0  0  0  0  0  0  0  0  0  0
   24.9300   42.9400   46.2900 H   0  0  0  0  0  0  0  0  0  0  0  0
   23.6900   42.4500   45.4500 H   0  0  0  0  0  0  0  0  0  0  0  0
   25.1600   42.1400   44.1700 C   0  0  0  0  0  0  0  0  0  0  0  0
   26.1900   42.2200   44.3100 H   0  0  0  0  0  0  0  0  0  0  0  0
   24.8200   43.1100   43.7200 H   0  0  0  0  0  0  0  0  0  0  0  0
   25.1500   40.9600   43.1400 C   0  0  0  0  0  0  0  0  0  0  0  0
   24.3400   40.2100   43.2200 H   0  0  0  0  0  0  0  0  0  0  0  0
   25.8300   40.1300   43.2500 H   0  0  0  0  0  0  0  0  0  0  0  0
   25.1500   41.5200   41.7300 C   0  0  0  0  0  0  0  0  0  0  0  0
   26.1300   41.9300   41.4800 H   0  0  0  0  0  0  0  0  0  0  0  0
   24.5200   42.4400   41.5700 H   0  0  0  0  0  0  0  0  0  0  0  0
   24.8300   40.3300   40.8300 C   0  0  0  0  0  0  0  0  0  0  0  0
   23.9200   39.7500   41.0200 H   0  0  0  0  0  0  0  0  0  0  0  0
   25.6100   39.5800   40.8700 H   0  0  0  0  0  0  0  0  0  0  0  0
   24.6900   40.8300   39.4600 C   0  0  0  0  0  0  0  0  0  0  0  0
   25.7800   41.0400   39.4000 H   0  0  0  0  0  0  0  0  0  0  0  0
   24.2200   41.8500   39.3400 H   0  0  0  0  0  0  0  0  0  0  0  0
   24.1000   39.8400   38.4100 C   0  0  0  0  0  0  0  0  0  0  0  0
   24.7400   38.9600   38.2700 H   0  0  0  0  0  0  0  0  0  0  0  0
   24.0100   40.1900   37.3500 H   0  0  0  0  0  0  0  0  0  0  0  0
   23.0500   39.6900   38.6200 H   0  0  0  0  0  0  0  0  0  0  0  0
   20.8500   42.6000   51.5100 C   0  0  0  0  0  0  0  0  0  0  0  0
   20.1100   43.2200   51.4400 H   0  0  0  0  0  0  0  0  0  0  0  0
   19.9700   42.1300   51.2000 H   0  0  0  0  0  0  0  0  0  0  0  0
   21.8200   44.5500   51.1400 C   0  0  0  0  0  0  0  0  0  0  0  0
   22.7500   44.5900   50.3700 H   0  0  0  0  0  0  0  0  0  0  0  0
   22.9800   44.7300   51.4000 H   0  0  0  0  0  0  0  0  0  0  0  0
   21.3500   45.7100   50.6000 C   0  0  0  0  0  0  0  0  0  0  0  0
   22.1900   46.0900   49.9900 H   0  0  0  0  0  0  0  0  0  0  0  0
   21.1900   46.3200   51.4900 H   0  0  0  0  0  0  0  0  0  0  0  0
   20.5000   45.6400   49.4700 C   0  0  0  0  0  0  0  0  0  0  0  0
   20.2300   46.7200   49.5600 H   0  0  0  0  0  0  0  0  0  0  0  0
   19.6800   45.0000   49.8000 H   0  0  0  0  0  0  0  0  0  0  0  0
   21.2200   45.3200   48.1200 C   0  0  0  0  0  0  0  0  0  0  0  0
   22.0400   44.8600   47.5800 H   0  0  0  0  0  0  0  0  0  0  0  0
   22.3000   45.4700   48.2700 H   0  0  0  0  0  0  0  0  0  0  0  0
   20.4600   45.9200   47.1000 C   0  0  0  0  0  0  0  0  0  0  0  0
   20.0100   46.8700   47.3700 H   0  0  0  0  0  0  0  0  0  0  0  0
   19.8000   45.1200   47.0600 H   0  0  0  0  0  0  0  0  0  0  0  0
   20.9500   45.6800   45.7800 C   0  0  0  0  0  0  0  0  0  0  0  0
   22.0000   45.9400   45.8300 H   0  0  0  0  0  0  0  0  0  0  0  0
   20.3100   46.2100   45.0500 H   0  0  0  0  0  0  0  0  0  0  0  0
   21.0700   44.2500   45.5000 C   0  0  0  0  0  0  0  0  0  0  0  0
   20.3700   43.5600   46.0200 H   0  0  0  0  0  0  0  0  0  0  0  0
   21.9700   43.9300   46.0400 H   0  0  0  0  0  0  0  0  0  0  0  0
   21.2200   44.3100   43.9900 C   0  0  0  0  0  0  0  0  0  0  0  0
   22.3000   44.1300   43.8800 H   0  0  0  0  0  0  0  0  0  0  0  0
   20.8800   45.2400   43.5500 H   0  0  0  0  0  0  0  0  0  0  0  0
   20.3400   43.4900   43.1200 C   0  0  0  0  0  0  0  0  0  0  0  0
   19.3400   43.3000   43.3200 H   0  0  0  0  0  0  0  0  0  0  0  0
   20.5600   42.6800   43.8300 H   0  0  0  0  0  0  0  0  0  0  0  0
   20.5000   43.3100   41.4700 C   0  0  0  0  0  0  0  0  0  0  0  0
   21.5500   43.2400   41.8500 H   0  0  0  0  0  0  0  0  0  0  0  0
   21.1700   43.7800   40.7600 H   0  0  0  0  0  0  0  0  0  0  0  0
   19.7900   41.8700   40.6400 C   0  0  0  0  0  0  0  0  0  0  0  0
   20.1800   41.4100   39.7800 H   0  0  0  0  0  0  0  0  0  0  0  0
   18.9800   42.5200   40.3600 H   0  0  0  0  0  0  0  0  0  0  0  0
   19.6100   39.9000   41.0100 C   0  0  0  0  0  0  0  0  0  0  0  0
   18.8300   39.3300   40.5500 H   0  0  0  0  0  0  0  0  0  0  0  0
   19.2600   39.9900   42.0500 H   0  0  0  0  0  0  0  0  0  0  0  0
   20.1200   38.4700   41.6600 C   0  0  0  0  0  0  0  0  0  0  0  0
   20.4800   38.2800   42.6800 H   0  0  0  0  0  0  0  0  0  0  0  0
   20.8500   38.0300   41.0100 H   0  0  0  0  0  0  0  0  0  0  0  0
   19.2600   37.7800   41.8600 H   0  0  0  0  0  0  0  0  0  0  0  0
  1  2  1  0  0  0  0
  1  5  1  0  0  0  0
  3  1  1  0  0  0  0
  4  1  1  0  0  0  0
  5  6  1  0  0  0  0
  7  5  1  0  0  0  0
  8  9  1  0  0  0  0
  8  5  1  0  0  0  0
  8 10  1  0  0  0  0
 11 14  1  6  0  0  0
 11 15  1  0  0  0  0
 11 12  1  0  0  0  0
 13 11  2  0  0  0  0
 15  8  1  0  0  0  0
 16 18  1  0  0  0  0
 16 14  1  0  0  0  0
 17 16  1  0  0  0  0
 19 20  1  1  0  0  0
 19 16  1  0  0  0  0
 21 19  1  0  0  0  0
 22 21  1  0  0  0  0
 23 22  2  0  0  0  0
 24 26  1  0  0  0  0
 24 22  1  0  0  0  0
 24 25  1  0  0  0  0
 27 28  1  0  0  0  0
 27 19  1  0  0  0  0
 29 27  1  0  0  0  0
 30 27  1  0  0  0  0
 31 30  1  0  0  0  0
 32 31  2  0  0  0  0
 33 31  1  0  0  0  0
 33 35  1  0  0  0  0
 34 33  1  0  0  0  0
 36 24  1  0  0  0  0
 37 36  1  0  0  0  0
 38 36  1  0  0  0  0
 39 42  1  0  0  0  0
 39 36  1  0  0  0  0
 40 39  1  0  0  0  0
 41 39  1  0  0  0  0
 42 43  1  0  0  0  0
 42 44  1  0  0  0  0
 45 48  1  0  0  0  0
 45 42  1  0  0  0  0
 46 45  1  0  0  0  0
 47 45  1  0  0  0  0
 48 49  1  0  0  0  0
 48 50  1  0  0  0  0
 51 52  1  0  0  0  0
 51 48  1  0  0  0  0
 53 51  1  0  0  0  0
 54 51  1  0  0  0  0
 55 54  1  0  0  0  0
 56 54  2  0  0  0  0
 57 56  1  0  0  0  0
 58 56  1  0  0  0  0
 58 59  1  0  0  0  0
 60 58  1  0  0  0  0
 61 62  1  0  0  0  0
 61 58  1  0  0  0  0
 63 61  1  0  0  0  0
 64 65  1  0  0  0  0
 64 61  1  0  0  0  0
 66 64  1  0  0  0  0
 67 68  1  0  0  0  0
 67 69  1  0  0  0  0
 67 64  1  0  0  0  0
 70 67  1  0  0  0  0
 71 70  1  0  0  0  0
 72 70  1  0  0  0  0
 73 75  1  0  0  0  0
 73 74  1  0  0  0  0
 73 70  1  0  0  0  0
 76 73  1  0  0  0  0
 77 76  1  0  0  0  0
 78 76  1  0  0  0  0
 79 82  1  0  0  0  0
 79 76  1  0  0  0  0
 80 79  1  0  0  0  0
 81 79  1  0  0  0  0
 83 33  1  0  0  0  0
 84 83  1  0  0  0  0
 85 83  1  0  0  0  0
 86 88  1  0  0  0  0
 87 86  1  0  0  0  0
 89 86  1  0  0  0  0
 89 91  1  0  0  0  0
 90 89  1  0  0  0  0
 92 93  1  0  0  0  0
 92 94  1  0  0  0  0
 92 89  1  0  0  0  0
 95 97  1  0  0  0  0
 95 92  1  0  0  0  0
 96 95  1  0  0  0  0
 98 99  1  0  0  0  0
 98 95  1  0  0  0  0
100 98  1  0  0  0  0
101102  1  0  0  0  0
101 98  1  0  0  0  0
103101  1  0  0  0  0
104101  1  0  0  0  0
104105  1  0  0  0  0
104106  1  0  0  0  0
107104  1  0  0  0  0
108107  1  0  0  0  0
109107  1  0  0  0  0
110111  1  0  0  0  0
110112  1  0  0  0  0
110107  1  0  0  0  0
113114  1  0  0  0  0
113110  1  0  0  0  0
115113  1  0  0  0  0
116113  1  0  0  0  0
117116  1  0  0  0  0
118116  1  0  0  0  0
119122  1  0  0  0  0
119121  1  0  0  0  0
120119  1  0  0  0  0
122125  1  0  0  0  0
122123  1  0  0  0  0
124122  1  0  0  0  0
M  END
