PNPI2C
 OpenBabel02161614153D

140139  0  0  1  0  0  0  0  0999 V2000
   47.1900   46.7700   62.4400 C   0  0  2  0  0  0  0  0  0  0  0  0
   47.2800   45.9200   61.7300 H   0  0  0  0  0  0  0  0  0  0  0  0
   45.8200   47.1800   62.5000 O   0  0  0  0  0  0  0  0  0  0  0  0
   45.6700   47.3300   63.4500 H   0  0  0  0  0  0  0  0  0  0  0  0
   47.6500   46.3100   63.8000 C   0  0  2  0  0  0  0  0  0  0  0  0
   48.7500   46.1300   63.7200 H   0  0  0  0  0  0  0  0  0  0  0  0
   47.0800   45.0300   64.0800 O   0  0  0  0  0  0  0  0  0  0  0  0
   45.5700   44.7600   64.6700 P   0  0  1  0  0  0  0  0  0  0  0  0
   46.0300   44.0100   65.9900 O   0  0  0  0  0  0  0  0  0  0  0  0
   46.3800   44.7300   66.5400 H   0  0  0  0  0  0  0  0  0  0  0  0
   44.8000   45.9700   65.2000 O   0  0  0  0  0  0  0  0  0  0  0  0
   44.8100   43.8000   63.7900 O   0  0  0  0  0  0  0  0  0  0  0  0
   47.5300   47.4800   64.7900 C   0  0  1  0  0  0  0  0  0  0  0  0
   46.4800   47.8300   64.8500 H   0  0  0  0  0  0  0  0  0  0  0  0
   47.8700   46.8600   66.0100 O   0  0  0  0  0  0  0  0  0  0  0  0
   48.3100   47.5600   67.4000 P   0  0  0  0  0  0  0  0  0  0  0  0
   47.3600   48.7300   67.6700 O   0  0  0  0  0  0  0  0  0  0  0  0
   49.7700   47.9700   67.2300 O   0  0  0  0  0  0  0  0  0  0  0  0
   48.0900   46.5100   68.4700 O   0  0  0  0  0  0  0  0  0  0  0  0
   48.4400   48.6400   64.3200 C   0  0  2  0  0  0  0  0  0  0  0  0
   49.5000   48.2800   64.3300 H   0  0  0  0  0  0  0  0  0  0  0  0
   48.3500   49.8100   65.1400 O   0  0  0  0  0  0  0  0  0  0  0  0
   47.6400   49.6600   65.7700 H   0  0  0  0  0  0  0  0  0  0  0  0
   48.0500   49.0700   62.9100 C   0  0  1  0  0  0  0  0  0  0  0  0
   47.0000   49.4500   62.9700 H   0  0  0  0  0  0  0  0  0  0  0  0
   48.9200   50.1000   62.4100 O   0  0  0  0  0  0  0  0  0  0  0  0
   48.3700   50.8300   62.0800 H   0  0  0  0  0  0  0  0  0  0  0  0
   48.1000   47.8900   61.9600 C   0  0  2  0  0  0  0  0  0  0  0  0
   49.1600   47.5200   62.0400 H   0  0  0  0  0  0  0  0  0  0  0  0
   48.6000   47.6100   59.4000 P   0  0  2  0  0  0  0  0  0  0  0  0
   48.1500   46.2100   59.2800 O   0  0  0  0  0  0  0  0  0  0  0  0
   50.0600   47.8400   59.6600 O   0  0  0  0  0  0  0  0  0  0  0  0
   47.7600   48.3100   60.6300 O   0  0  0  0  0  0  0  0  0  0  0  0
   48.1300   48.3800   58.1300 O   0  0  0  0  0  0  0  0  0  0  0  0
   46.8500   49.0000   58.0900 C   0  0  0  0  0  0  0  0  0  0  0  0
   46.8800   49.9400   58.7000 H   0  0  0  0  0  0  0  0  0  0  0  0
   46.0500   48.3400   58.5000 H   0  0  0  0  0  0  0  0  0  0  0  0
   46.4800   49.3300   56.6300 C   0  0  2  0  0  0  0  0  0  0  0  0
   45.4100   49.6700   56.6000 H   0  0  0  0  0  0  0  0  0  0  0  0
   46.7200   48.2200   55.7400 O   0  0  0  0  0  0  0  0  0  0  0  0
   45.7100   47.4300   55.4300 C   0  0  0  0  0  0  0  0  0  0  0  0
   44.6200   47.4200   55.9900 O   0  0  0  0  0  0  0  0  0  0  0  0
   46.1000   46.5700   54.2100 C   0  0  0  0  0  0  0  0  0  0  0  0
   45.3700   45.7400   54.1600 H   0  0  0  0  0  0  0  0  0  0  0  0
   47.1200   46.1500   54.3600 H   0  0  0  0  0  0  0  0  0  0  0  0
   47.3300   50.5200   56.1300 C   0  0  0  0  0  0  0  0  0  0  0  0
   47.0900   51.4100   56.7600 H   0  0  0  0  0  0  0  0  0  0  0  0
   48.4100   50.2800   56.2900 H   0  0  0  0  0  0  0  0  0  0  0  0
   47.0100   50.8500   54.7700 O   0  0  0  0  0  0  0  0  0  0  0  0
   47.8200   50.3200   53.8700 C   0  0  0  0  0  0  0  0  0  0  0  0
   48.7700   49.5900   54.0800 O   0  0  0  0  0  0  0  0  0  0  0  0
   47.4500   50.8500   52.5000 C   0  0  0  0  0  0  0  0  0  0  0  0
   47.6000   51.9400   52.5600 H   0  0  0  0  0  0  0  0  0  0  0  0
   46.3800   50.6700   52.2600 H   0  0  0  0  0  0  0  0  0  0  0  0
   46.0600   47.4100   52.9000 C   0  0  0  0  0  0  0  0  0  0  0  0
   46.9800   48.0300   52.8900 H   0  0  0  0  0  0  0  0  0  0  0  0
   45.1800   48.0900   52.9400 H   0  0  0  0  0  0  0  0  0  0  0  0
   46.0300   46.6500   51.5600 C   0  0  0  0  0  0  0  0  0  0  0  0
   46.2800   47.3900   50.7600 H   0  0  0  0  0  0  0  0  0  0  0  0
   44.9900   46.3000   51.3500 H   0  0  0  0  0  0  0  0  0  0  0  0
   47.0700   45.5200   51.4800 C   0  0  0  0  0  0  0  0  0  0  0  0
   46.9200   44.8300   52.3400 H   0  0  0  0  0  0  0  0  0  0  0  0
   48.0700   46.0100   51.6200 H   0  0  0  0  0  0  0  0  0  0  0  0
   47.1100   44.6700   50.2000 C   0  0  0  0  0  0  0  0  0  0  0  0
   46.0900   44.5400   49.7700 H   0  0  0  0  0  0  0  0  0  0  0  0
   47.4800   43.6600   50.4900 H   0  0  0  0  0  0  0  0  0  0  0  0
   48.0600   45.2200   49.1300 C   0  0  0  0  0  0  0  0  0  0  0  0
   49.0100   45.5000   49.6400 H   0  0  0  0  0  0  0  0  0  0  0  0
   47.6100   46.1300   48.6800 H   0  0  0  0  0  0  0  0  0  0  0  0
   48.3500   44.2300   47.9800 C   0  0  0  0  0  0  0  0  0  0  0  0
   47.4600   43.9000   47.4400 H   0  0  0  0  0  0  0  0  0  0  0  0
   48.6200   43.2600   48.4400 H   0  0  0  0  0  0  0  0  0  0  0  0
   49.4100   44.8600   47.0700 C   0  0  0  0  0  0  0  0  0  0  0  0
   50.3500   45.1600   47.5900 H   0  0  0  0  0  0  0  0  0  0  0  0
   49.3700   45.0700   45.7400 C   0  0  0  0  0  0  0  0  0  0  0  0
   50.2500   45.5400   45.2900 H   0  0  0  0  0  0  0  0  0  0  0  0
   48.2500   44.7300   44.7900 C   0  0  0  0  0  0  0  0  0  0  0  0
   48.0500   43.6400   44.8700 H   0  0  0  0  0  0  0  0  0  0  0  0
   48.6100   44.8900   43.7500 H   0  0  0  0  0  0  0  0  0  0  0  0
   46.9500   45.4600   45.0000 C   0  0  0  0  0  0  0  0  0  0  0  0
   46.5300   45.3500   46.0100 H   0  0  0  0  0  0  0  0  0  0  0  0
   46.1900   46.0900   44.0800 C   0  0  0  0  0  0  0  0  0  0  0  0
   45.3000   46.6400   44.4400 H   0  0  0  0  0  0  0  0  0  0  0  0
   46.4800   46.2100   42.6000 C   0  0  0  0  0  0  0  0  0  0  0  0
   45.7500   45.6000   42.0200 H   0  0  0  0  0  0  0  0  0  0  0  0
   47.5000   45.9300   42.2900 H   0  0  0  0  0  0  0  0  0  0  0  0
   46.3600   47.6100   42.2300 C   0  0  0  0  0  0  0  0  0  0  0  0
   47.2700   48.1700   41.9200 H   0  0  0  0  0  0  0  0  0  0  0  0
   45.2300   48.2000   41.9400 C   0  0  0  0  0  0  0  0  0  0  0  0
   45.5700   49.2000   41.6800 H   0  0  0  0  0  0  0  0  0  0  0  0
   43.7400   47.7900   41.8500 C   0  0  0  0  0  0  0  0  0  0  0  0
   43.2400   48.3600   42.6500 H   0  0  0  0  0  0  0  0  0  0  0  0
   43.7100   46.7100   42.0200 H   0  0  0  0  0  0  0  0  0  0  0  0
   42.7600   47.9700   40.6100 C   0  0  0  0  0  0  0  0  0  0  0  0
   43.1600   47.5800   39.6500 H   0  0  0  0  0  0  0  0  0  0  0  0
   41.7000   47.7700   40.7400 H   0  0  0  0  0  0  0  0  0  0  0  0
   42.5000   49.0300   40.5100 H   0  0  0  0  0  0  0  0  0  0  0  0
   48.3900   50.2200   51.4600 C   0  0  0  0  0  0  0  0  0  0  0  0
   48.2100   49.1200   51.4500 H   0  0  0  0  0  0  0  0  0  0  0  0
   49.4500   50.3800   51.7500 H   0  0  0  0  0  0  0  0  0  0  0  0
   48.1800   50.7100   50.0400 C   0  0  0  0  0  0  0  0  0  0  0  0
   49.1400   51.1000   49.6300 H   0  0  0  0  0  0  0  0  0  0  0  0
   47.4000   51.5100   50.0100 H   0  0  0  0  0  0  0  0  0  0  0  0
   47.7600   49.5400   49.1600 C   0  0  0  0  0  0  0  0  0  0  0  0
   46.8800   49.0700   49.6100 H   0  0  0  0  0  0  0  0  0  0  0  0
   48.6000   48.8100   49.1000 H   0  0  0  0  0  0  0  0  0  0  0  0
   47.3600   49.9700   47.8100 C   0  0  0  0  0  0  0  0  0  0  0  0
   46.9700   51.0200   47.7600 H   0  0  0  0  0  0  0  0  0  0  0  0
   46.6600   49.2800   47.3000 H   0  0  0  0  0  0  0  0  0  0  0  0
   48.5800   49.9100   47.0500 C   0  0  0  0  0  0  0  0  0  0  0  0
   49.0400   48.9100   46.8200 H   0  0  0  0  0  0  0  0  0  0  0  0
   49.3700   50.5600   47.5500 H   0  0  0  0  0  0  0  0  0  0  0  0
   48.1500   50.5000   45.8100 C   0  0  0  0  0  0  0  0  0  0  0  0
   47.7500   51.5300   45.7500 H   0  0  0  0  0  0  0  0  0  0  0  0
   47.7600   49.8700   44.9500 H   0  0  0  0  0  0  0  0  0  0  0  0
   49.4700   50.9500   45.4500 C   0  0  0  0  0  0  0  0  0  0  0  0
   50.1100   49.8200   45.5500 H   0  0  0  0  0  0  0  0  0  0  0  0
   50.0300   51.5200   45.9100 H   0  0  0  0  0  0  0  0  0  0  0  0
   49.1700   51.9600   43.1200 C   0  0  0  0  0  0  0  0  0  0  0  0
   50.1100   51.8800   42.5400 H   0  0  0  0  0  0  0  0  0  0  0  0
   48.9200   52.7800   43.3500 H   0  0  0  0  0  0  0  0  0  0  0  0
   48.3900   50.9500   42.0800 C   0  0  0  0  0  0  0  0  0  0  0  0
   47.4500   50.9600   42.6200 H   0  0  0  0  0  0  0  0  0  0  0  0
   48.6300   49.8300   42.2600 H   0  0  0  0  0  0  0  0  0  0  0  0
   48.8000   51.4200   40.7500 C   0  0  0  0  0  0  0  0  0  0  0  0
   49.8500   51.4000   40.3700 H   0  0  0  0  0  0  0  0  0  0  0  0
   48.5200   52.4800   40.7800 H   0  0  0  0  0  0  0  0  0  0  0  0
   48.0900   50.6200   39.8600 C   0  0  0  0  0  0  0  0  0  0  0  0
   47.2700   50.3300   40.5400 H   0  0  0  0  0  0  0  0  0  0  0  0
   48.6600   49.7000   39.5700 H   0  0  0  0  0  0  0  0  0  0  0  0
   47.6700   51.6800   38.8900 C   0  0  0  0  0  0  0  0  0  0  0  0
   48.4800   52.1900   38.3600 H   0  0  0  0  0  0  0  0  0  0  0  0
   47.0100   52.3300   39.5000 H   0  0  0  0  0  0  0  0  0  0  0  0
   46.9400   51.1500   37.8100 C   0  0  0  0  0  0  0  0  0  0  0  0
   46.2500   51.4000   37.0300 H   0  0  0  0  0  0  0  0  0  0  0  0
   46.1900   50.8700   38.5200 H   0  0  0  0  0  0  0  0  0  0  0  0
   47.7700   50.3300   37.1800 C   0  0  0  0  0  0  0  0  0  0  0  0
   47.0500   49.8700   36.6400 H   0  0  0  0  0  0  0  0  0  0  0  0
   48.2300   50.4000   36.2100 H   0  0  0  0  0  0  0  0  0  0  0  0
   47.9700   49.5500   37.8900 H   0  0  0  0  0  0  0  0  0  0  0  0
  1  2  1  6  0  0  0
  1  3  1  0  0  0  0
  1  5  1  0  0  0  0
  3  4  1  0  0  0  0
  5  6  1  6  0  0  0
  5  7  1  0  0  0  0
  5 13  1  0  0  0  0
  7  8  1  0  0  0  0
  8 12  2  6  0  0  0
  8 11  1  0  0  0  0
  8  9  1  0  0  0  0
  9 10  1  0  0  0  0
 13 14  1  1  0  0  0
 13 15  1  0  0  0  0
 15 16  1  0  0  0  0
 16 17  1  0  0  0  0
 16 19  1  0  0  0  0
 18 16  2  0  0  0  0
 20 21  1  6  0  0  0
 20 13  1  0  0  0  0
 20 22  1  0  0  0  0
 22 23  1  0  0  0  0
 24 25  1  1  0  0  0
 24 20  1  0  0  0  0
 26 24  1  0  0  0  0
 27 26  1  0  0  0  0
 28 29  1  6  0  0  0
 28  1  1  0  0  0  0
 28 24  1  0  0  0  0
 30 34  1  6  0  0  0
 30 32  1  0  0  0  0
 30 33  1  0  0  0  0
 31 30  2  0  0  0  0
 33 28  1  0  0  0  0
 35 34  1  0  0  0  0
 35 37  1  0  0  0  0
 35 36  1  0  0  0  0
 38 39  1  6  0  0  0
 38 35  1  0  0  0  0
 40 38  1  0  0  0  0
 41 40  1  0  0  0  0
 41 42  2  0  0  0  0
 43 45  1  0  0  0  0
 43 41  1  0  0  0  0
 44 43  1  0  0  0  0
 46 48  1  0  0  0  0
 46 38  1  0  0  0  0
 46 47  1  0  0  0  0
 49 46  1  0  0  0  0
 50 51  2  0  0  0  0
 50 49  1  0  0  0  0
 52 53  1  0  0  0  0
 52 50  1  0  0  0  0
 54 52  1  0  0  0  0
 55 57  1  0  0  0  0
 55 43  1  0  0  0  0
 56 55  1  0  0  0  0
 58 55  1  0  0  0  0
 59 58  1  0  0  0  0
 60 58  1  0  0  0  0
 61 58  1  0  0  0  0
 61 63  1  0  0  0  0
 61 62  1  0  0  0  0
 64 66  1  0  0  0  0
 64 61  1  0  0  0  0
 65 64  1  0  0  0  0
 67 68  1  0  0  0  0
 67 64  1  0  0  0  0
 69 67  1  0  0  0  0
 70 72  1  0  0  0  0
 70 67  1  0  0  0  0
 71 70  1  0  0  0  0
 73 74  1  0  0  0  0
 73 70  1  0  0  0  0
 75 73  2  0  0  0  0
 76 75  1  0  0  0  0
 77 78  1  0  0  0  0
 77 80  1  0  0  0  0
 77 75  1  0  0  0  0
 79 77  1  0  0  0  0
 80 81  1  0  0  0  0
 82 83  1  0  0  0  0
 82 80  2  0  0  0  0
 84 82  1  0  0  0  0
 85 84  1  0  0  0  0
 86 84  1  0  0  0  0
 87 84  1  0  0  0  0
 88 87  1  0  0  0  0
 89 87  2  0  0  0  0
 90 89  1  0  0  0  0
 91 89  1  0  0  0  0
 91 93  1  0  0  0  0
 91 92  1  0  0  0  0
 94 96  1  0  0  0  0
 94 91  1  0  0  0  0
 95 94  1  0  0  0  0
 97 94  1  0  0  0  0
 98100  1  0  0  0  0
 98 52  1  0  0  0  0
 99 98  1  0  0  0  0
101 98  1  0  0  0  0
102101  1  0  0  0  0
103101  1  0  0  0  0
104105  1  0  0  0  0
104101  1  0  0  0  0
106104  1  0  0  0  0
107104  1  0  0  0  0
108107  1  0  0  0  0
109107  1  0  0  0  0
110112  1  0  0  0  0
110107  1  0  0  0  0
111110  1  0  0  0  0
113110  1  0  0  0  0
114113  1  0  0  0  0
115113  1  0  0  0  0
116117  1  0  0  0  0
116113  1  0  0  0  0
116118  1  0  0  0  0
119121  1  0  0  0  0
120119  1  0  0  0  0
122124  1  0  0  0  0
122123  1  0  0  0  0
122119  1  0  0  0  0
125127  1  0  0  0  0
125122  1  0  0  0  0
126125  1  0  0  0  0
128129  1  0  0  0  0
128125  1  0  0  0  0
130128  1  0  0  0  0
131133  1  0  0  0  0
131128  1  0  0  0  0
132131  1  0  0  0  0
134136  1  0  0  0  0
134131  1  0  0  0  0
135134  1  0  0  0  0
137134  1  0  0  0  0
137140  1  0  0  0  0
138137  1  0  0  0  0
139137  1  0  0  0  0
M  END
