QMPE
 OpenBabel02161614153D

119119  0  0  1  0  0  0  0  0999 V2000
    8.1700    6.1900   60.6500 N   0  0  0  0  0  0  0  0  0  0  0  0
    7.2000    6.5800   60.7000 H   0  0  0  0  0  0  0  0  0  0  0  0
    8.6200    6.1800   61.5800 H   0  0  0  0  0  0  0  0  0  0  0  0
    8.6800    6.8400   60.0200 H   0  0  0  0  0  0  0  0  0  0  0  0
    8.1800    4.8000   60.0700 C   0  0  0  0  0  0  0  0  0  0  0  0
    7.5600    4.1500   60.7300 H   0  0  0  0  0  0  0  0  0  0  0  0
    9.2300    4.4400   60.1200 H   0  0  0  0  0  0  0  0  0  0  0  0
    7.6600    4.7600   58.6200 C   0  0  0  0  0  0  0  0  0  0  0  0
    7.7700    3.7200   58.2400 H   0  0  0  0  0  0  0  0  0  0  0  0
    8.3400    5.4000   57.9900 H   0  0  0  0  0  0  0  0  0  0  0  0
    5.8100    6.4600   57.8200 P   0  0  1  0  0  0  0  0  0  0  0  0
    6.8500    7.4500   58.2000 O   0  0  0  0  0  0  0  0  0  0  0  0
    4.4100    6.7500   58.1700 O   0  0  0  0  0  0  0  0  0  0  0  0
    5.9500    6.1300   56.2900 O   0  0  0  0  0  0  0  0  0  0  0  0
    6.2800    5.1200   58.5300 O   0  0  0  0  0  0  0  0  0  0  0  0
    5.0900    5.1400   55.6800 C   0  0  0  0  0  0  0  0  0  0  0  0
    4.0200    5.4000   55.7800 H   0  0  0  0  0  0  0  0  0  0  0  0
    5.2700    4.1500   56.1500 H   0  0  0  0  0  0  0  0  0  0  0  0
    5.4200    4.9500   54.1600 C   0  0  2  0  0  0  0  0  0  0  0  0
    5.3100    3.8900   53.8600 H   0  0  0  0  0  0  0  0  0  0  0  0
    6.7400    5.3800   53.9700 O   0  0  0  0  0  0  0  0  0  0  0  0
    7.5200    4.5400   54.6000 C   0  0  0  0  0  0  0  0  0  0  0  0
    7.2800    3.3800   54.9100 O   0  0  0  0  0  0  0  0  0  0  0  0
    8.8100    5.1700   54.6300 C   0  0  0  0  0  0  0  0  0  0  0  0
    9.3500    4.8600   55.5500 H   0  0  0  0  0  0  0  0  0  0  0  0
    8.7200    6.2800   54.6800 H   0  0  0  0  0  0  0  0  0  0  0  0
    4.5500    5.7300   53.1900 C   0  0  0  0  0  0  0  0  0  0  0  0
    4.4000    6.7200   53.7000 H   0  0  0  0  0  0  0  0  0  0  0  0
    3.5600    5.2300   53.1200 H   0  0  0  0  0  0  0  0  0  0  0  0
    5.1500    5.7600   51.8500 O   0  0  0  0  0  0  0  0  0  0  0  0
    4.9500    6.9300   51.2800 C   0  0  0  0  0  0  0  0  0  0  0  0
    4.4500    7.8800   51.8300 O   0  0  0  0  0  0  0  0  0  0  0  0
    5.3100    6.9600   49.8000 C   0  0  0  0  0  0  0  0  0  0  0  0
    6.2500    7.5500   49.7100 H   0  0  0  0  0  0  0  0  0  0  0  0
    5.4800    5.9300   49.4500 H   0  0  0  0  0  0  0  0  0  0  0  0
    9.3300    4.5700   53.2900 C   0  0  0  0  0  0  0  0  0  0  0  0
    9.4700    3.5100   53.0900 H   0  0  0  0  0  0  0  0  0  0  0  0
   10.3400    4.6500   53.7100 H   0  0  0  0  0  0  0  0  0  0  0  0
    8.8100    5.3400   51.9800 C   0  0  0  0  0  0  0  0  0  0  0  0
    8.3900    6.2500   52.4300 H   0  0  0  0  0  0  0  0  0  0  0  0
    7.8500    4.9500   51.6000 H   0  0  0  0  0  0  0  0  0  0  0  0
    9.7300    5.5800   50.7100 C   0  0  0  0  0  0  0  0  0  0  0  0
    9.8300    4.6000   50.2400 H   0  0  0  0  0  0  0  0  0  0  0  0
   10.7900    5.8200   50.9000 H   0  0  0  0  0  0  0  0  0  0  0  0
    9.3900    6.6600   49.6200 C   0  0  0  0  0  0  0  0  0  0  0  0
    9.1900    7.6600   50.0100 H   0  0  0  0  0  0  0  0  0  0  0  0
    8.4800    6.3900   49.0600 H   0  0  0  0  0  0  0  0  0  0  0  0
   10.5600    6.8500   48.6400 C   0  0  0  0  0  0  0  0  0  0  0  0
   11.5000    7.0700   49.1800 H   0  0  0  0  0  0  0  0  0  0  0  0
   10.4300    7.7000   47.9400 H   0  0  0  0  0  0  0  0  0  0  0  0
   10.7300    5.5800   47.8400 C   0  0  0  0  0  0  0  0  0  0  0  0
   10.9400    4.7100   48.4800 H   0  0  0  0  0  0  0  0  0  0  0  0
   11.5300    5.7200   47.1400 H   0  0  0  0  0  0  0  0  0  0  0  0
    9.6000    5.4700   46.8900 C   0  0  2  0  0  0  0  0  0  0  0  0
    9.1800    6.4000   46.5100 H   0  0  0  0  0  0  0  0  0  0  0  0
    8.5700    4.4200   47.2300 C   0  0  0  0  0  0  0  0  0  0  0  0
    8.9000    3.9100   48.1200 H   0  0  0  0  0  0  0  0  0  0  0  0
    7.6200    4.9300   47.1300 H   0  0  0  0  0  0  0  0  0  0  0  0
    9.4700    4.3000   45.9700 C   0  0  2  0  0  0  0  0  0  0  0  0
    8.9000    4.5100   45.0500 H   0  0  0  0  0  0  0  0  0  0  0  0
   10.4100    3.0800   45.9800 C   0  0  0  0  0  0  0  0  0  0  0  0
   10.7600    2.9100   47.0200 H   0  0  0  0  0  0  0  0  0  0  0  0
    9.7600    2.2200   45.7100 H   0  0  0  0  0  0  0  0  0  0  0  0
   11.6300    2.9000   45.0200 C   0  0  0  0  0  0  0  0  0  0  0  0
   12.0100    1.8600   45.0900 H   0  0  0  0  0  0  0  0  0  0  0  0
   12.5100    3.4400   45.2700 H   0  0  0  0  0  0  0  0  0  0  0  0
   11.6000    3.3700   43.5900 C   0  0  0  0  0  0  0  0  0  0  0  0
   10.9000    2.7800   42.9700 H   0  0  0  0  0  0  0  0  0  0  0  0
   12.6500    3.2300   43.2000 H   0  0  0  0  0  0  0  0  0  0  0  0
   11.3900    4.8500   43.4400 C   0  0  0  0  0  0  0  0  0  0  0  0
   12.0300    5.4600   44.0600 H   0  0  0  0  0  0  0  0  0  0  0  0
   10.3500    5.1100   43.7200 H   0  0  0  0  0  0  0  0  0  0  0  0
   11.7100    5.1200   42.0100 C   0  0  0  0  0  0  0  0  0  0  0  0
   11.5200    6.1100   41.6300 H   0  0  0  0  0  0  0  0  0  0  0  0
   10.9800    4.4300   41.5400 H   0  0  0  0  0  0  0  0  0  0  0  0
   13.1200    5.1900   41.4900 C   0  0  0  0  0  0  0  0  0  0  0  0
   13.7600    5.8400   42.1000 H   0  0  0  0  0  0  0  0  0  0  0  0
   13.0500    5.6600   40.4600 H   0  0  0  0  0  0  0  0  0  0  0  0
   13.5200    4.1700   41.3700 H   0  0  0  0  0  0  0  0  0  0  0  0
    4.1900    7.6300   48.9600 C   0  0  0  0  0  0  0  0  0  0  0  0
    3.9400    8.6500   49.3200 H   0  0  0  0  0  0  0  0  0  0  0  0
    3.2500    7.0400   48.9900 H   0  0  0  0  0  0  0  0  0  0  0  0
    4.6100    7.7700   47.5000 C   0  0  0  0  0  0  0  0  0  0  0  0
    3.7300    7.9800   46.8500 H   0  0  0  0  0  0  0  0  0  0  0  0
    5.1300    6.8600   47.1300 H   0  0  0  0  0  0  0  0  0  0  0  0
    5.5300    8.9500   47.3700 C   0  0  0  0  0  0  0  0  0  0  0  0
    6.3900    8.9200   48.0500 H   0  0  0  0  0  0  0  0  0  0  0  0
    4.9300    9.7800   47.7000 H   0  0  0  0  0  0  0  0  0  0  0  0
    5.8400    9.1900   45.9400 C   0  0  0  0  0  0  0  0  0  0  0  0
    6.3700   10.1500   45.7600 H   0  0  0  0  0  0  0  0  0  0  0  0
    4.9400    9.1600   45.3100 H   0  0  0  0  0  0  0  0  0  0  0  0
    6.7900    8.2000   45.4200 C   0  0  0  0  0  0  0  0  0  0  0  0
    7.6000    8.1300   46.1700 H   0  0  0  0  0  0  0  0  0  0  0  0
    6.4400    7.1600   45.3100 H   0  0  0  0  0  0  0  0  0  0  0  0
    7.2700    8.8100   44.1300 C   0  0  0  0  0  0  0  0  0  0  0  0
    7.7400    9.8200   44.1500 H   0  0  0  0  0  0  0  0  0  0  0  0
    8.0000    8.0300   43.9300 H   0  0  0  0  0  0  0  0  0  0  0  0
    6.4000    9.0900   43.0100 C   0  0  0  0  0  0  0  0  0  0  0  0
    6.4100   10.1700   42.7500 H   0  0  0  0  0  0  0  0  0  0  0  0
    5.4000    8.7300   43.3000 H   0  0  0  0  0  0  0  0  0  0  0  0
    6.9100    8.3100   41.8900 C   0  0  0  0  0  0  0  0  0  0  0  0
    7.1500    7.3000   42.2900 H   0  0  0  0  0  0  0  0  0  0  0  0
    7.7800    8.7100   41.3200 H   0  0  0  0  0  0  0  0  0  0  0  0
    5.8200    8.2000   40.9400 C   0  0  0  0  0  0  0  0  0  0  0  0
    5.8900    9.1400   40.3400 H   0  0  0  0  0  0  0  0  0  0  0  0
    4.8800    8.1400   41.4900 H   0  0  0  0  0  0  0  0  0  0  0  0
    6.1000    6.9400   40.2300 C   0  0  0  0  0  0  0  0  0  0  0  0
    6.5500    6.1300   40.8500 H   0  0  0  0  0  0  0  0  0  0  0  0
    6.8900    7.4000   39.6200 H   0  0  0  0  0  0  0  0  0  0  0  0
    5.0000    6.3000   39.4900 C   0  0  0  0  0  0  0  0  0  0  0  0
    4.4400    5.5900   40.1500 H   0  0  0  0  0  0  0  0  0  0  0  0
    4.2700    7.0600   39.1300 H   0  0  0  0  0  0  0  0  0  0  0  0
    5.4900    5.5100   38.3400 C   0  0  0  0  0  0  0  0  0  0  0  0
    5.6000    4.4300   38.5600 H   0  0  0  0  0  0  0  0  0  0  0  0
    6.4300    5.5400   37.8700 H   0  0  0  0  0  0  0  0  0  0  0  0
    4.5900    5.9000   37.2300 C   0  0  0  0  0  0  0  0  0  0  0  0
    3.8900    6.7500   37.2000 H   0  0  0  0  0  0  0  0  0  0  0  0
    5.1000    5.7700   36.2500 H   0  0  0  0  0  0  0  0  0  0  0  0
    4.0800    5.1200   37.6800 H   0  0  0  0  0  0  0  0  0  0  0  0
  1  2  1  0  0  0  0
  1  3  1  0  0  0  0
  4  1  1  0  0  0  0
  5  7  1  0  0  0  0
  5  1  1  0  0  0  0
  5  6  1  0  0  0  0
  8  5  1  0  0  0  0
  9  8  1  0  0  0  0
 10  8  1  0  0  0  0
 11 14  1  6  0  0  0
 11 13  2  0  0  0  0
 11 12  1  0  0  0  0
 11 15  1  0  0  0  0
 15  8  1  0  0  0  0
 16 17  1  0  0  0  0
 16 18  1  0  0  0  0
 16 14  1  0  0  0  0
 19 20  1  6  0  0  0
 19 16  1  0  0  0  0
 21 19  1  0  0  0  0
 21 22  1  0  0  0  0
 22 24  1  0  0  0  0
 22 23  2  0  0  0  0
 24 26  1  0  0  0  0
 24 25  1  0  0  0  0
 27 28  1  0  0  0  0
 27 19  1  0  0  0  0
 29 27  1  0  0  0  0
 30 27  1  0  0  0  0
 31 32  2  0  0  0  0
 31 30  1  0  0  0  0
 33 31  1  0  0  0  0
 34 33  1  0  0  0  0
 35 33  1  0  0  0  0
 36 38  1  0  0  0  0
 36 24  1  0  0  0  0
 37 36  1  0  0  0  0
 39 40  1  0  0  0  0
 39 36  1  0  0  0  0
 41 39  1  0  0  0  0
 42 44  1  0  0  0  0
 42 39  1  0  0  0  0
 43 42  1  0  0  0  0
 45 46  1  0  0  0  0
 45 42  1  0  0  0  0
 47 45  1  0  0  0  0
 48 49  1  0  0  0  0
 48 45  1  0  0  0  0
 50 48  1  0  0  0  0
 51 52  1  0  0  0  0
 51 48  1  0  0  0  0
 53 51  1  0  0  0  0
 54 55  1  6  0  0  0
 54 56  1  0  0  0  0
 54 51  1  0  0  0  0
 56 57  1  0  0  0  0
 58 56  1  0  0  0  0
 59 60  1  6  0  0  0
 59 61  1  0  0  0  0
 59 54  1  0  0  0  0
 59 56  1  0  0  0  0
 61 62  1  0  0  0  0
 63 61  1  0  0  0  0
 64 65  1  0  0  0  0
 64 66  1  0  0  0  0
 64 61  1  0  0  0  0
 67 64  1  0  0  0  0
 68 67  1  0  0  0  0
 69 67  1  0  0  0  0
 70 67  1  0  0  0  0
 70 72  1  0  0  0  0
 70 71  1  0  0  0  0
 73 70  1  0  0  0  0
 74 73  1  0  0  0  0
 75 73  1  0  0  0  0
 76 73  1  0  0  0  0
 76 77  1  0  0  0  0
 78 76  1  0  0  0  0
 79 76  1  0  0  0  0
 80 82  1  0  0  0  0
 80 81  1  0  0  0  0
 80 33  1  0  0  0  0
 83 80  1  0  0  0  0
 84 83  1  0  0  0  0
 85 83  1  0  0  0  0
 86 83  1  0  0  0  0
 86 88  1  0  0  0  0
 86 87  1  0  0  0  0
 89 86  1  0  0  0  0
 90 89  1  0  0  0  0
 91 89  1  0  0  0  0
 92 89  1  0  0  0  0
 92 93  1  0  0  0  0
 94 92  1  0  0  0  0
 95 96  1  0  0  0  0
 95 92  1  0  0  0  0
 97 95  1  0  0  0  0
 98100  1  0  0  0  0
 98 95  1  0  0  0  0
 99 98  1  0  0  0  0
101102  1  0  0  0  0
101 98  1  0  0  0  0
103101  1  0  0  0  0
104106  1  0  0  0  0
104101  1  0  0  0  0
105104  1  0  0  0  0
107108  1  0  0  0  0
107104  1  0  0  0  0
109107  1  0  0  0  0
110111  1  0  0  0  0
110107  1  0  0  0  0
112110  1  0  0  0  0
113114  1  0  0  0  0
113110  1  0  0  0  0
115113  1  0  0  0  0
116119  1  0  0  0  0
116113  1  0  0  0  0
117116  1  0  0  0  0
118116  1  0  0  0  0
M  END
