LNACL1
 OpenBabel02161614153D

239238  0  0  1  0  0  0  0  0999 V2000
   39.2400   51.1100   61.2000 C   0  0  0  0  0  0  0  0  0  0  0  0
   40.2000   51.3400   61.7200 H   0  0  0  0  0  0  0  0  0  0  0  0
   38.9600   50.0500   61.4200 H   0  0  0  0  0  0  0  0  0  0  0  0
   38.8400   50.4700   58.6600 P   0  0  2  0  0  0  0  0  0  0  0  0
   37.3600   50.4900   58.5800 O   0  0  0  0  0  0  0  0  0  0  0  0
   39.5100   49.1600   58.8100 O   0  0  0  0  0  0  0  0  0  0  0  0
   39.3700   51.3900   59.8200 O   0  0  0  0  0  0  0  0  0  0  0  0
   39.4300   51.1500   57.3800 O   0  0  0  0  0  0  0  0  0  0  0  0
   40.8000   51.5300   57.3400 C   0  0  0  0  0  0  0  0  0  0  0  0
   40.9700   52.3600   58.0600 H   0  0  0  0  0  0  0  0  0  0  0  0
   41.4800   50.7000   57.6700 H   0  0  0  0  0  0  0  0  0  0  0  0
   38.0900   51.9800   61.7100 C   0  0  1  0  0  0  0  0  0  0  0  0
   37.2500   51.7900   61.0100 H   0  0  0  0  0  0  0  0  0  0  0  0
   37.6800   51.4800   62.9700 O   0  0  0  0  0  0  0  0  0  0  0  0
   37.9000   50.5400   62.9500 H   0  0  0  0  0  0  0  0  0  0  0  0
   38.4100   53.5100   61.7900 C   0  0  0  0  0  0  0  0  0  0  0  0
   38.6400   53.7800   62.8400 H   0  0  0  0  0  0  0  0  0  0  0  0
   37.4800   54.0700   61.5500 H   0  0  0  0  0  0  0  0  0  0  0  0
   39.5300   54.9000   59.8900 P   0  0  1  0  0  0  0  0  0  0  0  0
   39.6400   56.3700   60.5100 O   0  0  0  0  0  0  0  0  0  0  0  0
   39.1800   56.5000   61.3400 H   0  0  0  0  0  0  0  0  0  0  0  0
   40.6100   54.7700   58.9100 O   0  0  0  0  0  0  0  0  0  0  0  0
   39.5900   53.9000   61.0700 O   0  0  0  0  0  0  0  0  0  0  0  0
   38.1000   54.7800   59.2700 O   0  0  0  0  0  0  0  0  0  0  0  0
   37.7000   55.7200   58.2900 C   0  0  0  0  0  0  0  0  0  0  0  0
   38.5400   55.9900   57.6000 H   0  0  0  0  0  0  0  0  0  0  0  0
   37.3500   56.6700   58.7600 H   0  0  0  0  0  0  0  0  0  0  0  0
   36.5900   55.1500   57.3500 C   0  0  2  0  0  0  0  0  0  0  0  0
   35.6300   55.0400   57.9200 H   0  0  0  0  0  0  0  0  0  0  0  0
   36.9800   53.8900   56.7300 O   0  0  0  0  0  0  0  0  0  0  0  0
   35.9800   53.0800   56.3100 C   0  0  0  0  0  0  0  0  0  0  0  0
   34.8300   53.1800   56.6900 O   0  0  0  0  0  0  0  0  0  0  0  0
   36.4900   52.1800   55.1700 C   0  0  0  0  0  0  0  0  0  0  0  0
   37.4300   51.7100   55.4900 H   0  0  0  0  0  0  0  0  0  0  0  0
   36.7200   52.8400   54.3000 H   0  0  0  0  0  0  0  0  0  0  0  0
   36.3200   56.2400   56.2800 C   0  0  0  0  0  0  0  0  0  0  0  0
   37.2700   56.8100   56.1000 H   0  0  0  0  0  0  0  0  0  0  0  0
   35.5800   56.9500   56.7100 H   0  0  0  0  0  0  0  0  0  0  0  0
   35.7400   55.6700   55.1000 O   0  0  0  0  0  0  0  0  0  0  0  0
   36.2500   56.0700   53.9500 C   0  0  0  0  0  0  0  0  0  0  0  0
   37.0900   56.9400   53.8200 O   0  0  0  0  0  0  0  0  0  0  0  0
   35.5200   55.3300   52.8200 C   0  0  0  0  0  0  0  0  0  0  0  0
   34.7600   56.0200   52.3900 H   0  0  0  0  0  0  0  0  0  0  0  0
   35.0000   54.4500   53.2600 H   0  0  0  0  0  0  0  0  0  0  0  0
   41.1300   52.0900   55.9100 C   0  0  2  0  0  0  0  0  0  0  0  0
   42.2200   52.2800   55.9100 H   0  0  0  0  0  0  0  0  0  0  0  0
   40.3400   53.2900   55.7200 O   0  0  0  0  0  0  0  0  0  0  0  0
   40.9500   54.3200   55.1200 C   0  0  0  0  0  0  0  0  0  0  0  0
   42.1200   54.3600   54.8100 O   0  0  0  0  0  0  0  0  0  0  0  0
   39.8700   55.3300   54.6700 C   0  0  0  0  0  0  0  0  0  0  0  0
   39.3100   55.6400   55.5700 H   0  0  0  0  0  0  0  0  0  0  0  0
   39.1800   54.8100   53.9700 H   0  0  0  0  0  0  0  0  0  0  0  0
   40.8600   51.0500   54.7500 C   0  0  0  0  0  0  0  0  0  0  0  0
   41.4400   50.1500   55.0500 H   0  0  0  0  0  0  0  0  0  0  0  0
   39.7800   50.7700   54.6700 H   0  0  0  0  0  0  0  0  0  0  0  0
   41.4200   51.4400   53.4900 O   0  0  0  0  0  0  0  0  0  0  0  0
   40.7600   52.1600   52.6100 C   0  0  0  0  0  0  0  0  0  0  0  0
   39.6000   52.5300   52.6900 O   0  0  0  0  0  0  0  0  0  0  0  0
   41.7800   52.5000   51.4900 C   0  0  0  0  0  0  0  0  0  0  0  0
   42.3300   51.5900   51.1900 H   0  0  0  0  0  0  0  0  0  0  0  0
   42.5100   53.2200   51.9300 H   0  0  0  0  0  0  0  0  0  0  0  0
   35.4800   51.1100   54.6600 C   0  0  0  0  0  0  0  0  0  0  0  0
   34.4300   51.5000   54.7100 H   0  0  0  0  0  0  0  0  0  0  0  0
   35.5100   50.2200   55.3200 H   0  0  0  0  0  0  0  0  0  0  0  0
   35.8000   50.6000   53.2400 C   0  0  0  0  0  0  0  0  0  0  0  0
   35.9400   51.4500   52.5500 H   0  0  0  0  0  0  0  0  0  0  0  0
   34.9700   49.9400   52.8900 H   0  0  0  0  0  0  0  0  0  0  0  0
   37.0600   49.7400   53.1600 C   0  0  0  0  0  0  0  0  0  0  0  0
   36.8400   48.8000   53.7100 H   0  0  0  0  0  0  0  0  0  0  0  0
   37.9400   50.2100   53.6500 H   0  0  0  0  0  0  0  0  0  0  0  0
   37.5100   49.4400   51.7300 C   0  0  0  0  0  0  0  0  0  0  0  0
   37.9900   50.3400   51.2600 H   0  0  0  0  0  0  0  0  0  0  0  0
   36.6600   49.1000   51.1000 H   0  0  0  0  0  0  0  0  0  0  0  0
   38.5900   48.3900   51.7900 C   0  0  0  0  0  0  0  0  0  0  0  0
   38.0600   47.5100   52.1400 H   0  0  0  0  0  0  0  0  0  0  0  0
   39.3700   48.6300   52.5400 H   0  0  0  0  0  0  0  0  0  0  0  0
   39.2400   48.0400   50.4500 C   0  0  0  0  0  0  0  0  0  0  0  0
   38.3900   47.8200   49.7800 H   0  0  0  0  0  0  0  0  0  0  0  0
   39.8500   47.1200   50.6700 H   0  0  0  0  0  0  0  0  0  0  0  0
   40.0900   49.1400   49.9100 C   0  0  0  0  0  0  0  0  0  0  0  0
   40.7200   49.6000   50.6900 H   0  0  0  0  0  0  0  0  0  0  0  0
   40.1800   49.5800   48.6300 C   0  0  0  0  0  0  0  0  0  0  0  0
   40.8300   50.4400   48.4300 H   0  0  0  0  0  0  0  0  0  0  0  0
   39.4400   49.0800   47.4000 C   0  0  0  0  0  0  0  0  0  0  0  0
   38.9800   49.9400   46.8700 H   0  0  0  0  0  0  0  0  0  0  0  0
   38.6200   48.3900   47.6800 H   0  0  0  0  0  0  0  0  0  0  0  0
   40.3800   48.3300   46.4900 C   0  0  0  0  0  0  0  0  0  0  0  0
   40.8500   47.4600   46.9600 H   0  0  0  0  0  0  0  0  0  0  0  0
   40.6900   48.6000   45.2000 C   0  0  0  0  0  0  0  0  0  0  0  0
   41.4500   47.9700   44.7100 H   0  0  0  0  0  0  0  0  0  0  0  0
   40.1900   49.7300   44.3300 C   0  0  0  0  0  0  0  0  0  0  0  0
   39.2300   50.1400   44.7000 H   0  0  0  0  0  0  0  0  0  0  0  0
   39.9900   49.3300   43.3100 H   0  0  0  0  0  0  0  0  0  0  0  0
   41.1700   50.8600   44.3700 C   0  0  0  0  0  0  0  0  0  0  0  0
   41.9900   50.7000   45.0900 H   0  0  0  0  0  0  0  0  0  0  0  0
   41.1100   52.0800   43.8200 C   0  0  0  0  0  0  0  0  0  0  0  0
   41.9800   52.7200   44.0100 H   0  0  0  0  0  0  0  0  0  0  0  0
   40.0700   52.7600   42.9700 C   0  0  0  0  0  0  0  0  0  0  0  0
   40.6400   53.5500   42.4300 H   0  0  0  0  0  0  0  0  0  0  0  0
   39.3200   53.2900   43.6200 H   0  0  0  0  0  0  0  0  0  0  0  0
   39.3000   52.0000   41.8900 C   0  0  0  0  0  0  0  0  0  0  0  0
   40.0100   51.6800   41.1000 H   0  0  0  0  0  0  0  0  0  0  0  0
   38.5600   52.6900   41.4300 H   0  0  0  0  0  0  0  0  0  0  0  0
   38.7200   51.1200   42.2500 H   0  0  0  0  0  0  0  0  0  0  0  0
   36.4100   54.8700   51.6300 C   0  0  0  0  0  0  0  0  0  0  0  0
   37.2000   54.1800   52.0000 H   0  0  0  0  0  0  0  0  0  0  0  0
   36.9200   55.7700   51.2200 H   0  0  0  0  0  0  0  0  0  0  0  0
   35.5600   54.1500   50.5700 C   0  0  0  0  0  0  0  0  0  0  0  0
   34.8500   54.8400   50.0800 H   0  0  0  0  0  0  0  0  0  0  0  0
   34.9400   53.4500   51.1800 H   0  0  0  0  0  0  0  0  0  0  0  0
   36.2800   53.2500   49.5100 C   0  0  0  0  0  0  0  0  0  0  0  0
   35.4600   52.6000   49.1100 H   0  0  0  0  0  0  0  0  0  0  0  0
   37.0200   52.6000   50.0300 H   0  0  0  0  0  0  0  0  0  0  0  0
   36.9900   53.9100   48.3000 C   0  0  0  0  0  0  0  0  0  0  0  0
   37.8500   54.4700   48.7100 H   0  0  0  0  0  0  0  0  0  0  0  0
   36.3300   54.6200   47.7400 H   0  0  0  0  0  0  0  0  0  0  0  0
   37.5100   52.9500   47.2000 C   0  0  0  0  0  0  0  0  0  0  0  0
   38.5100   52.5800   47.5200 H   0  0  0  0  0  0  0  0  0  0  0  0
   37.6800   53.5400   46.2600 H   0  0  0  0  0  0  0  0  0  0  0  0
   36.5200   51.8000   46.9400 C   0  0  0  0  0  0  0  0  0  0  0  0
   35.5100   52.2600   46.9700 H   0  0  0  0  0  0  0  0  0  0  0  0
   36.5800   51.1100   47.8100 H   0  0  0  0  0  0  0  0  0  0  0  0
   36.7200   50.9400   45.7200 C   0  0  0  0  0  0  0  0  0  0  0  0
   37.1500   49.9500   45.9300 H   0  0  0  0  0  0  0  0  0  0  0  0
   36.3300   51.2500   44.4800 C   0  0  0  0  0  0  0  0  0  0  0  0
   36.5000   50.5400   43.6500 H   0  0  0  0  0  0  0  0  0  0  0  0
   35.6100   52.5500   44.1600 C   0  0  0  0  0  0  0  0  0  0  0  0
   35.6500   53.2700   45.0000 H   0  0  0  0  0  0  0  0  0  0  0  0
   34.5500   52.3100   44.1200 H   0  0  0  0  0  0  0  0  0  0  0  0
   35.9500   53.3700   42.9600 C   0  0  0  0  0  0  0  0  0  0  0  0
   36.5100   54.2800   43.2100 H   0  0  0  0  0  0  0  0  0  0  0  0
   35.7000   53.1000   41.6700 C   0  0  0  0  0  0  0  0  0  0  0  0
   35.9300   53.8800   40.9300 H   0  0  0  0  0  0  0  0  0  0  0  0
   35.0100   51.8800   41.1000 C   0  0  0  0  0  0  0  0  0  0  0  0
   34.0800   52.2000   40.5600 H   0  0  0  0  0  0  0  0  0  0  0  0
   34.7400   51.1200   41.8900 H   0  0  0  0  0  0  0  0  0  0  0  0
   35.7800   50.9800   40.1300 C   0  0  0  0  0  0  0  0  0  0  0  0
   35.0400   50.3600   39.5900 H   0  0  0  0  0  0  0  0  0  0  0  0
   36.5600   50.4300   40.6600 H   0  0  0  0  0  0  0  0  0  0  0  0
   36.4500   51.7000   39.0100 C   0  0  0  0  0  0  0  0  0  0  0  0
   36.8600   52.5700   39.5900 H   0  0  0  0  0  0  0  0  0  0  0  0
   35.5500   52.1100   38.4900 H   0  0  0  0  0  0  0  0  0  0  0  0
   37.5800   50.9600   38.0600 C   0  0  0  0  0  0  0  0  0  0  0  0
   37.1500   50.0000   37.7500 H   0  0  0  0  0  0  0  0  0  0  0  0
   38.4600   50.9500   38.7000 H   0  0  0  0  0  0  0  0  0  0  0  0
   38.2400   51.3900   36.6400 C   0  0  0  0  0  0  0  0  0  0  0  0
   39.1600   51.3100   36.1200 H   0  0  0  0  0  0  0  0  0  0  0  0
   38.7000   52.4000   36.5100 H   0  0  0  0  0  0  0  0  0  0  0  0
   37.4100   51.5500   36.0600 H   0  0  0  0  0  0  0  0  0  0  0  0
   40.4600   56.5700   53.9400 C   0  0  0  0  0  0  0  0  0  0  0  0
   41.3200   56.9500   54.5300 H   0  0  0  0  0  0  0  0  0  0  0  0
   39.7000   57.3800   53.9000 H   0  0  0  0  0  0  0  0  0  0  0  0
   40.7600   56.2500   52.4700 C   0  0  0  0  0  0  0  0  0  0  0  0
   39.8600   55.9000   51.9300 H   0  0  0  0  0  0  0  0  0  0  0  0
   41.5100   55.4300   52.4600 H   0  0  0  0  0  0  0  0  0  0  0  0
   41.3400   57.3900   51.6300 C   0  0  0  0  0  0  0  0  0  0  0  0
   41.8200   56.8600   50.8000 H   0  0  0  0  0  0  0  0  0  0  0  0
   42.1400   57.8900   52.2200 H   0  0  0  0  0  0  0  0  0  0  0  0
   40.3400   58.4500   51.1300 C   0  0  0  0  0  0  0  0  0  0  0  0
   40.7900   59.1300   50.3600 H   0  0  0  0  0  0  0  0  0  0  0  0
   40.1700   59.1400   51.9900 H   0  0  0  0  0  0  0  0  0  0  0  0
   38.9900   57.9500   50.5700 C   0  0  0  0  0  0  0  0  0  0  0  0
   38.3900   58.8800   50.4500 H   0  0  0  0  0  0  0  0  0  0  0  0
   38.4100   57.3800   51.3300 H   0  0  0  0  0  0  0  0  0  0  0  0
   39.0900   57.2700   49.1700 C   0  0  0  0  0  0  0  0  0  0  0  0
   39.3600   56.2000   49.2800 H   0  0  0  0  0  0  0  0  0  0  0  0
   39.9300   57.7800   48.6400 H   0  0  0  0  0  0  0  0  0  0  0  0
   37.8500   57.2900   48.3000 C   0  0  0  0  0  0  0  0  0  0  0  0
   36.9400   57.3300   48.9200 H   0  0  0  0  0  0  0  0  0  0  0  0
   37.7300   57.3400   46.9500 C   0  0  0  0  0  0  0  0  0  0  0  0
   36.7100   57.3600   46.5400 H   0  0  0  0  0  0  0  0  0  0  0  0
   38.8200   57.4100   45.9000 C   0  0  0  0  0  0  0  0  0  0  0  0
   39.8200   57.4600   46.3800 H   0  0  0  0  0  0  0  0  0  0  0  0
   38.6400   58.4300   45.4800 H   0  0  0  0  0  0  0  0  0  0  0  0
   39.0100   56.4500   44.7400 C   0  0  0  0  0  0  0  0  0  0  0  0
   39.7800   55.6800   44.8800 H   0  0  0  0  0  0  0  0  0  0  0  0
   38.3100   56.4100   43.6000 C   0  0  0  0  0  0  0  0  0  0  0  0
   38.5400   55.7000   42.7900 H   0  0  0  0  0  0  0  0  0  0  0  0
   37.1800   57.3100   43.2600 C   0  0  0  0  0  0  0  0  0  0  0  0
   36.8700   58.0300   44.0600 H   0  0  0  0  0  0  0  0  0  0  0  0
   36.3200   56.7400   42.8900 H   0  0  0  0  0  0  0  0  0  0  0  0
   37.5300   58.1000   42.1100 C   0  0  0  0  0  0  0  0  0  0  0  0
   36.6300   58.7700   41.8800 H   0  0  0  0  0  0  0  0  0  0  0  0
   38.4300   58.6300   42.5300 H   0  0  0  0  0  0  0  0  0  0  0  0
   37.9600   57.5400   40.7900 C   0  0  0  0  0  0  0  0  0  0  0  0
   38.1400   58.3300   40.0000 H   0  0  0  0  0  0  0  0  0  0  0  0
   38.9100   56.9800   40.8800 H   0  0  0  0  0  0  0  0  0  0  0  0
   36.8000   56.7500   40.3500 C   0  0  0  0  0  0  0  0  0  0  0  0
   36.0200   57.4200   39.8700 H   0  0  0  0  0  0  0  0  0  0  0  0
   36.4800   55.9700   41.0300 H   0  0  0  0  0  0  0  0  0  0  0  0
   37.2400   55.9500   39.3100 C   0  0  0  0  0  0  0  0  0  0  0  0
   38.2300   55.4000   39.3700 H   0  0  0  0  0  0  0  0  0  0  0  0
   37.3800   56.8400   38.7100 H   0  0  0  0  0  0  0  0  0  0  0  0
   36.4700   55.4900   38.7100 H   0  0  0  0  0  0  0  0  0  0  0  0
   41.1900   53.1400   50.2200 C   0  0  0  0  0  0  0  0  0  0  0  0
   40.7200   54.1100   50.5100 H   0  0  0  0  0  0  0  0  0  0  0  0
   40.4000   52.4900   49.7800 H   0  0  0  0  0  0  0  0  0  0  0  0
   42.2200   53.4600   49.1500 C   0  0  0  0  0  0  0  0  0  0  0  0
   42.5500   52.5600   48.5800 H   0  0  0  0  0  0  0  0  0  0  0  0
   43.1500   53.8800   49.6000 H   0  0  0  0  0  0  0  0  0  0  0  0
   41.6300   54.4900   48.1900 C   0  0  0  0  0  0  0  0  0  0  0  0
   41.6000   55.5000   48.6800 H   0  0  0  0  0  0  0  0  0  0  0  0
   40.5900   54.2500   47.8800 H   0  0  0  0  0  0  0  0  0  0  0  0
   42.3700   54.4500   46.8700 C   0  0  0  0  0  0  0  0  0  0  0  0
   41.8800   55.1400   46.1300 H   0  0  0  0  0  0  0  0  0  0  0  0
   42.4900   53.4600   46.4300 H   0  0  0  0  0  0  0  0  0  0  0  0
   43.7900   54.7500   47.0800 C   0  0  0  0  0  0  0  0  0  0  0  0
   44.5600   54.3900   47.7700 H   0  0  0  0  0  0  0  0  0  0  0  0
   43.4900   55.5600   47.7200 H   0  0  0  0  0  0  0  0  0  0  0  0
   44.3700   55.0300   45.7400 C   0  0  0  0  0  0  0  0  0  0  0  0
   45.3100   55.5200   45.9800 H   0  0  0  0  0  0  0  0  0  0  0  0
   43.8100   55.8000   45.2000 H   0  0  0  0  0  0  0  0  0  0  0  0
   44.6400   54.0000   44.7800 C   0  0  0  0  0  0  0  0  0  0  0  0
   45.4800   53.4000   45.1000 H   0  0  0  0  0  0  0  0  0  0  0  0
   44.1400   54.0900   43.5300 C   0  0  0  0  0  0  0  0  0  0  0  0
   44.3600   53.2600   42.8700 H   0  0  0  0  0  0  0  0  0  0  0  0
   43.2700   55.1700   42.9100 C   0  0  0  0  0  0  0  0  0  0  0  0
   42.4400   55.5800   43.5400 H   0  0  0  0  0  0  0  0  0  0  0  0
   42.7300   54.5700   42.1600 H   0  0  0  0  0  0  0  0  0  0  0  0
   44.1200   56.3400   42.3600 C   0  0  0  0  0  0  0  0  0  0  0  0
   44.1500   57.1900   43.0400 H   0  0  0  0  0  0  0  0  0  0  0  0
   44.6000   56.6700   41.1100 C   0  0  0  0  0  0  0  0  0  0  0  0
   45.2000   57.5300   40.8600 H   0  0  0  0  0  0  0  0  0  0  0  0
   44.4700   56.0900   39.8200 C   0  0  0  0  0  0  0  0  0  0  0  0
   43.9900   55.3700   40.4600 H   0  0  0  0  0  0  0  0  0  0  0  0
   45.4800   55.6800   39.7700 H   0  0  0  0  0  0  0  0  0  0  0  0
   43.6600   56.4400   38.2800 C   0  0  0  0  0  0  0  0  0  0  0  0
   44.3700   57.1000   37.8200 H   0  0  0  0  0  0  0  0  0  0  0  0
   42.8000   57.0900   38.2200 H   0  0  0  0  0  0  0  0  0  0  0  0
   43.0300   55.4800   37.0400 C   0  0  0  0  0  0  0  0  0  0  0  0
   43.9100   55.1100   36.5500 H   0  0  0  0  0  0  0  0  0  0  0  0
   42.9400   55.8600   36.0300 H   0  0  0  0  0  0  0  0  0  0  0  0
   42.1000   54.1900   37.3300 C   0  0  0  0  0  0  0  0  0  0  0  0
   42.6100   53.2900   37.6800 H   0  0  0  0  0  0  0  0  0  0  0  0
   41.9000   53.4300   36.5800 H   0  0  0  0  0  0  0  0  0  0  0  0
   40.9600   54.4000   38.2800 C   0  0  0  0  0  0  0  0  0  0  0  0
   40.2800   53.5600   38.4400 H   0  0  0  0  0  0  0  0  0  0  0  0
   40.4200   55.0100   37.5700 H   0  0  0  0  0  0  0  0  0  0  0  0
   41.1500   54.8800   39.2700 H   0  0  0  0  0  0  0  0  0  0  0  0
  1  3  1  0  0  0  0
  1 12  1  0  0  0  0
  1  2  1  0  0  0  0
  4  8  1  6  0  0  0
  4  6  1  0  0  0  0
  4  7  1  0  0  0  0
  5  4  2  0  0  0  0
  7  1  1  0  0  0  0
  9  8  1  0  0  0  0
  9 11  1  0  0  0  0
  9 10  1  0  0  0  0
 12 13  1  6  0  0  0
 12 16  1  0  0  0  0
 12 14  1  0  0  0  0
 15 14  1  0  0  0  0
 16 17  1  0  0  0  0
 18 16  1  0  0  0  0
 19 22  2  6  0  0  0
 19 20  1  0  0  0  0
 19 23  1  0  0  0  0
 20 21  1  0  0  0  0
 23 16  1  0  0  0  0
 24 19  1  0  0  0  0
 25 27  1  0  0  0  0
 25 24  1  0  0  0  0
 26 25  1  0  0  0  0
 28 29  1  1  0  0  0
 28 25  1  0  0  0  0
 30 28  1  0  0  0  0
 31 32  2  0  0  0  0
 31 30  1  0  0  0  0
 33 34  1  0  0  0  0
 33 31  1  0  0  0  0
 35 33  1  0  0  0  0
 36 38  1  0  0  0  0
 36 28  1  0  0  0  0
 37 36  1  0  0  0  0
 39 36  1  0  0  0  0
 40 39  1  0  0  0  0
 41 40  2  0  0  0  0
 42 44  1  0  0  0  0
 42 40  1  0  0  0  0
 43 42  1  0  0  0  0
 45 46  1  6  0  0  0
 45  9  1  0  0  0  0
 47 45  1  0  0  0  0
 48 47  1  0  0  0  0
 49 48  2  0  0  0  0
 50 48  1  0  0  0  0
 50 51  1  0  0  0  0
 52 50  1  0  0  0  0
 53 54  1  0  0  0  0
 53 45  1  0  0  0  0
 55 53  1  0  0  0  0
 56 53  1  0  0  0  0
 57 58  2  0  0  0  0
 57 56  1  0  0  0  0
 59 61  1  0  0  0  0
 59 57  1  0  0  0  0
 60 59  1  0  0  0  0
 62 63  1  0  0  0  0
 62 33  1  0  0  0  0
 62 64  1  0  0  0  0
 65 62  1  0  0  0  0
 66 65  1  0  0  0  0
 67 65  1  0  0  0  0
 68 65  1  0  0  0  0
 68 70  1  0  0  0  0
 68 69  1  0  0  0  0
 71 74  1  0  0  0  0
 71 68  1  0  0  0  0
 72 71  1  0  0  0  0
 73 71  1  0  0  0  0
 74 75  1  0  0  0  0
 74 76  1  0  0  0  0
 77 79  1  0  0  0  0
 77 74  1  0  0  0  0
 78 77  1  0  0  0  0
 80 77  1  0  0  0  0
 80 81  1  0  0  0  0
 82 80  2  0  0  0  0
 83 82  1  0  0  0  0
 84 86  1  0  0  0  0
 84 82  1  0  0  0  0
 85 84  1  0  0  0  0
 87 88  1  0  0  0  0
 87 84  1  0  0  0  0
 89 87  2  0  0  0  0
 90 89  1  0  0  0  0
 91 94  1  0  0  0  0
 91 92  1  0  0  0  0
 91 89  1  0  0  0  0
 93 91  1  0  0  0  0
 94 95  1  0  0  0  0
 96 97  1  0  0  0  0
 96 94  2  0  0  0  0
 98100  1  0  0  0  0
 98 96  1  0  0  0  0
 99 98  1  0  0  0  0
101104  1  0  0  0  0
101 98  1  0  0  0  0
102101  1  0  0  0  0
103101  1  0  0  0  0
105106  1  0  0  0  0
105 42  1  0  0  0  0
107105  1  0  0  0  0
108110  1  0  0  0  0
108105  1  0  0  0  0
109108  1  0  0  0  0
111113  1  0  0  0  0
111108  1  0  0  0  0
112111  1  0  0  0  0
114115  1  0  0  0  0
114111  1  0  0  0  0
116114  1  0  0  0  0
117118  1  0  0  0  0
117114  1  0  0  0  0
119117  1  0  0  0  0
120121  1  0  0  0  0
120117  1  0  0  0  0
120122  1  0  0  0  0
123124  1  0  0  0  0
123120  1  0  0  0  0
125123  2  0  0  0  0
126125  1  0  0  0  0
127125  1  0  0  0  0
127128  1  0  0  0  0
129127  1  0  0  0  0
130131  1  0  0  0  0
130127  1  0  0  0  0
132130  2  0  0  0  0
133132  1  0  0  0  0
134132  1  0  0  0  0
134136  1  0  0  0  0
135134  1  0  0  0  0
137139  1  0  0  0  0
137134  1  0  0  0  0
138137  1  0  0  0  0
140141  1  0  0  0  0
140137  1  0  0  0  0
142140  1  0  0  0  0
143145  1  0  0  0  0
143140  1  0  0  0  0
144143  1  0  0  0  0
146143  1  0  0  0  0
147146  1  0  0  0  0
148146  1  0  0  0  0
149146  1  0  0  0  0
150151  1  0  0  0  0
150 50  1  0  0  0  0
152150  1  0  0  0  0
153150  1  0  0  0  0
154153  1  0  0  0  0
155153  1  0  0  0  0
156158  1  0  0  0  0
156153  1  0  0  0  0
157156  1  0  0  0  0
159156  1  0  0  0  0
159161  1  0  0  0  0
160159  1  0  0  0  0
162159  1  0  0  0  0
162164  1  0  0  0  0
163162  1  0  0  0  0
165166  1  0  0  0  0
165162  1  0  0  0  0
167165  1  0  0  0  0
168169  1  0  0  0  0
168165  1  0  0  0  0
170168  2  0  0  0  0
171170  1  0  0  0  0
172173  1  0  0  0  0
172170  1  0  0  0  0
174172  1  0  0  0  0
175176  1  0  0  0  0
175172  1  0  0  0  0
177175  2  0  0  0  0
178177  1  0  0  0  0
179177  1  0  0  0  0
179180  1  0  0  0  0
181179  1  0  0  0  0
182184  1  0  0  0  0
182179  1  0  0  0  0
183182  1  0  0  0  0
185187  1  0  0  0  0
185182  1  0  0  0  0
186185  1  0  0  0  0
188185  1  0  0  0  0
188190  1  0  0  0  0
189188  1  0  0  0  0
191192  1  0  0  0  0
191188  1  0  0  0  0
193191  1  0  0  0  0
194191  1  0  0  0  0
195196  1  0  0  0  0
195 59  1  0  0  0  0
197195  1  0  0  0  0
198200  1  0  0  0  0
198195  1  0  0  0  0
199198  1  0  0  0  0
201202  1  0  0  0  0
201198  1  0  0  0  0
203201  1  0  0  0  0
204207  1  0  0  0  0
204201  1  0  0  0  0
205204  1  0  0  0  0
206204  1  0  0  0  0
207209  1  0  0  0  0
207208  1  0  0  0  0
210211  1  0  0  0  0
210207  1  0  0  0  0
212210  1  0  0  0  0
213214  1  0  0  0  0
213210  1  0  0  0  0
215213  1  0  0  0  0
216215  1  0  0  0  0
217215  1  0  0  0  0
217218  1  0  0  0  0
219217  1  0  0  0  0
220217  1  0  0  0  0
220221  1  0  0  0  0
222220  1  0  0  0  0
223222  1  0  0  0  0
224225  1  0  0  0  0
224222  1  0  0  0  0
226224  1  0  0  0  0
227224  1  0  0  0  0
228227  1  0  0  0  0
229227  1  0  0  0  0
230233  1  0  0  0  0
230227  1  0  0  0  0
231230  1  0  0  0  0
232230  1  0  0  0  0
233234  1  0  0  0  0
233236  1  0  0  0  0
235233  1  0  0  0  0
236237  1  0  0  0  0
236239  1  0  0  0  0
238236  1  0  0  0  0
M  END
