SAPI15
 OpenBabel02161614153D

146146  0  0  1  0  0  0  0  0999 V2000
   23.0300    2.9200   62.5900 C   0  0  2  0  0  0  0  0  0  0  0  0
   23.4700    3.6200   61.8500 H   0  0  0  0  0  0  0  0  0  0  0  0
   23.7100    1.7200   62.3100 O   0  0  0  0  0  0  0  0  0  0  0  0
   24.1600    1.5000   63.1500 H   0  0  0  0  0  0  0  0  0  0  0  0
   23.2900    3.4800   63.9600 C   0  0  2  0  0  0  0  0  0  0  0  0
   22.7300    4.4300   64.0300 H   0  0  0  0  0  0  0  0  0  0  0  0
   24.6600    3.8400   64.0400 O   0  0  0  0  0  0  0  0  0  0  0  0
   24.7200    4.6700   64.5100 H   0  0  0  0  0  0  0  0  0  0  0  0
   22.7000    2.6400   65.1000 C   0  0  1  0  0  0  0  0  0  0  0  0
   23.1500    1.6100   65.1000 H   0  0  0  0  0  0  0  0  0  0  0  0
   23.0400    3.2600   66.3400 O   0  0  0  0  0  0  0  0  0  0  0  0
   23.8000    2.7500   66.6500 H   0  0  0  0  0  0  0  0  0  0  0  0
   21.1700    2.6100   64.8500 C   0  0  2  0  0  0  0  0  0  0  0  0
   20.7900    3.6300   64.8000 H   0  0  0  0  0  0  0  0  0  0  0  0
   20.3700    1.9800   65.8200 O   0  0  0  0  0  0  0  0  0  0  0  0
   20.8800    0.5500   66.3700 P   0  0  0  0  0  0  0  0  0  0  0  0
   21.5600   -0.1800   65.2300 O   0  0  0  0  0  0  0  0  0  0  0  0
   19.7200   -0.3300   66.7600 O   0  0  0  0  0  0  0  0  0  0  0  0
   21.8700    0.7500   67.5100 O   0  0  0  0  0  0  0  0  0  0  0  0
   20.9100    2.0100   63.4900 C   0  0  1  0  0  0  0  0  0  0  0  0
   21.5400    1.1100   63.5600 H   0  0  0  0  0  0  0  0  0  0  0  0
   19.5000    1.8300   63.1300 O   0  0  0  0  0  0  0  0  0  0  0  0
   19.1400    0.9700   63.4000 H   0  0  0  0  0  0  0  0  0  0  0  0
   21.5500    2.8200   62.4000 C   0  0  2  0  0  0  0  0  0  0  0  0
   21.0900    3.8200   62.5300 H   0  0  0  0  0  0  0  0  0  0  0  0
   21.0900    3.1900   59.7900 P   0  0  2  0  0  0  0  0  0  0  0  0
   22.3600    3.8900   59.5000 O   0  0  0  0  0  0  0  0  0  0  0  0
   19.8200    3.9000   59.9700 O   0  0  0  0  0  0  0  0  0  0  0  0
   21.3200    2.2300   61.1100 O   0  0  0  0  0  0  0  0  0  0  0  0
   20.7600    2.1600   58.6700 O   0  0  0  0  0  0  0  0  0  0  0  0
   20.3700    0.8500   58.9600 C   0  0  0  0  0  0  0  0  0  0  0  0
   19.6300    0.8700   59.8000 H   0  0  0  0  0  0  0  0  0  0  0  0
   19.8600    0.6300   58.0400 H   0  0  0  0  0  0  0  0  0  0  0  0
   21.5900   -0.1300   59.1500 C   0  0  2  0  0  0  0  0  0  0  0  0
   21.8700   -0.0700   60.2100 H   0  0  0  0  0  0  0  0  0  0  0  0
   22.6100    0.5400   58.4600 O   0  0  0  0  0  0  0  0  0  0  0  0
   23.7800    0.0700   58.7700 C   0  0  0  0  0  0  0  0  0  0  0  0
   23.9600   -0.5700   59.7900 O   0  0  0  0  0  0  0  0  0  0  0  0
   24.8200    0.5400   57.7400 C   0  0  0  0  0  0  0  0  0  0  0  0
   25.8300    0.2800   58.0700 H   0  0  0  0  0  0  0  0  0  0  0  0
   24.6800    0.1100   56.7400 H   0  0  0  0  0  0  0  0  0  0  0  0
   21.3800   -1.6600   58.6400 C   0  0  0  0  0  0  0  0  0  0  0  0
   20.8200   -2.4200   59.2000 H   0  0  0  0  0  0  0  0  0  0  0  0
   22.2700   -2.3200   58.7600 H   0  0  0  0  0  0  0  0  0  0  0  0
   20.5600   -1.7600   57.4800 O   0  0  0  0  0  0  0  0  0  0  0  0
   21.1100   -2.4100   56.4900 C   0  0  0  0  0  0  0  0  0  0  0  0
   22.2500   -2.8300   56.4900 O   0  0  0  0  0  0  0  0  0  0  0  0
   20.2200   -2.3100   55.2400 C   0  0  0  0  0  0  0  0  0  0  0  0
   19.2100   -2.6700   55.5000 H   0  0  0  0  0  0  0  0  0  0  0  0
   20.7300   -3.0300   54.5700 H   0  0  0  0  0  0  0  0  0  0  0  0
   24.6800    2.0400   57.5300 C   0  0  0  0  0  0  0  0  0  0  0  0
   25.7000    2.4600   57.3900 H   0  0  0  0  0  0  0  0  0  0  0  0
   24.2700    2.4600   58.4700 H   0  0  0  0  0  0  0  0  0  0  0  0
   23.7600    2.4200   56.3400 C   0  0  0  0  0  0  0  0  0  0  0  0
   22.7200    2.0800   56.5400 H   0  0  0  0  0  0  0  0  0  0  0  0
   24.0600    1.9500   55.3800 H   0  0  0  0  0  0  0  0  0  0  0  0
   23.7500    3.9000   56.2100 C   0  0  0  0  0  0  0  0  0  0  0  0
   24.5200    4.4300   56.8000 H   0  0  0  0  0  0  0  0  0  0  0  0
   22.8800    4.5900   55.4700 C   0  0  0  0  0  0  0  0  0  0  0  0
   22.9200    5.6800   55.5000 H   0  0  0  0  0  0  0  0  0  0  0  0
   21.7500    4.0900   54.6100 C   0  0  0  0  0  0  0  0  0  0  0  0
   20.8200    4.5500   54.9800 H   0  0  0  0  0  0  0  0  0  0  0  0
   21.6100    2.9900   54.6900 H   0  0  0  0  0  0  0  0  0  0  0  0
   22.0400    4.5700   53.2100 C   0  0  0  0  0  0  0  0  0  0  0  0
   22.3900    5.5900   53.1500 H   0  0  0  0  0  0  0  0  0  0  0  0
   22.0100    3.8900   52.0600 C   0  0  0  0  0  0  0  0  0  0  0  0
   22.2900    4.4200   51.1400 H   0  0  0  0  0  0  0  0  0  0  0  0
   21.6600    2.4400   51.9100 C   0  0  0  0  0  0  0  0  0  0  0  0
   21.2700    2.2500   50.8900 H   0  0  0  0  0  0  0  0  0  0  0  0
   20.8300    2.1500   52.6000 H   0  0  0  0  0  0  0  0  0  0  0  0
   22.7700    1.4900   52.1800 C   0  0  0  0  0  0  0  0  0  0  0  0
   22.8800    1.1500   53.2300 H   0  0  0  0  0  0  0  0  0  0  0  0
   23.6700    1.1000   51.2800 C   0  0  0  0  0  0  0  0  0  0  0  0
   24.4200    0.3800   51.6300 H   0  0  0  0  0  0  0  0  0  0  0  0
   23.7700    1.5200   49.8300 C   0  0  0  0  0  0  0  0  0  0  0  0
   22.7700    1.5300   49.3800 H   0  0  0  0  0  0  0  0  0  0  0  0
   24.3900    0.8000   49.2500 H   0  0  0  0  0  0  0  0  0  0  0  0
   24.2800    2.8900   49.5800 C   0  0  0  0  0  0  0  0  0  0  0  0
   24.6600    3.4600   50.4500 H   0  0  0  0  0  0  0  0  0  0  0  0
   24.5200    3.4000   48.3800 C   0  0  0  0  0  0  0  0  0  0  0  0
   24.7600    4.4600   48.3900 H   0  0  0  0  0  0  0  0  0  0  0  0
   24.3800    2.7800   47.0100 C   0  0  0  0  0  0  0  0  0  0  0  0
   23.3000    2.9000   46.7800 H   0  0  0  0  0  0  0  0  0  0  0  0
   24.6500    1.7100   47.0400 H   0  0  0  0  0  0  0  0  0  0  0  0
   25.0800    3.4200   45.7800 C   0  0  0  0  0  0  0  0  0  0  0  0
   26.1800    3.5800   45.8900 H   0  0  0  0  0  0  0  0  0  0  0  0
   24.6000    4.4100   45.6600 H   0  0  0  0  0  0  0  0  0  0  0  0
   24.8100    2.6500   44.4800 C   0  0  0  0  0  0  0  0  0  0  0  0
   23.7100    2.4700   44.4900 H   0  0  0  0  0  0  0  0  0  0  0  0
   25.3000    1.6500   44.5000 H   0  0  0  0  0  0  0  0  0  0  0  0
   25.1700    3.4200   43.2000 C   0  0  0  0  0  0  0  0  0  0  0  0
   26.2700    3.4800   43.0700 H   0  0  0  0  0  0  0  0  0  0  0  0
   24.8300    4.4800   43.3400 H   0  0  0  0  0  0  0  0  0  0  0  0
   24.5300    2.8500   41.9200 C   0  0  0  0  0  0  0  0  0  0  0  0
   24.6000    3.5600   41.0800 H   0  0  0  0  0  0  0  0  0  0  0  0
   23.4500    2.6200   42.0800 H   0  0  0  0  0  0  0  0  0  0  0  0
   25.0200    1.8900   41.6200 H   0  0  0  0  0  0  0  0  0  0  0  0
   20.1100   -0.9300   54.5200 C   0  0  0  0  0  0  0  0  0  0  0  0
   20.0500   -1.0900   53.4300 H   0  0  0  0  0  0  0  0  0  0  0  0
   20.9800   -0.2600   54.6300 H   0  0  0  0  0  0  0  0  0  0  0  0
   18.8800   -0.1400   54.9800 C   0  0  0  0  0  0  0  0  0  0  0  0
   19.0500    0.0800   56.0400 H   0  0  0  0  0  0  0  0  0  0  0  0
   17.9500   -0.7300   54.8500 H   0  0  0  0  0  0  0  0  0  0  0  0
   18.7300    1.2400   54.3600 C   0  0  0  0  0  0  0  0  0  0  0  0
   18.8900    1.2000   53.2600 H   0  0  0  0  0  0  0  0  0  0  0  0
   19.5100    1.9200   54.7900 H   0  0  0  0  0  0  0  0  0  0  0  0
   17.3400    1.8300   54.5800 C   0  0  0  0  0  0  0  0  0  0  0  0
   17.1500    2.0100   55.6600 H   0  0  0  0  0  0  0  0  0  0  0  0
   16.5600    1.1200   54.2200 H   0  0  0  0  0  0  0  0  0  0  0  0
   17.3700    3.1800   53.8500 C   0  0  0  0  0  0  0  0  0  0  0  0
   18.3600    3.6200   53.9900 H   0  0  0  0  0  0  0  0  0  0  0  0
   16.8400    3.9300   54.4400 H   0  0  0  0  0  0  0  0  0  0  0  0
   17.0500    3.1300   52.3400 C   0  0  0  0  0  0  0  0  0  0  0  0
   15.9500    3.2000   52.1500 H   0  0  0  0  0  0  0  0  0  0  0  0
   17.3000    2.1400   51.9100 H   0  0  0  0  0  0  0  0  0  0  0  0
   17.8100    4.2200   51.5200 C   0  0  0  0  0  0  0  0  0  0  0  0
   18.8800    4.2700   51.7800 H   0  0  0  0  0  0  0  0  0  0  0  0
   17.4600    5.2600   51.6500 H   0  0  0  0  0  0  0  0  0  0  0  0
   17.7200    3.8500   50.0400 C   0  0  0  0  0  0  0  0  0  0  0  0
   16.6600    3.6600   49.7600 H   0  0  0  0  0  0  0  0  0  0  0  0
   18.2700    2.8800   50.0100 H   0  0  0  0  0  0  0  0  0  0  0  0
   18.3900    4.8700   49.1100 C   0  0  0  0  0  0  0  0  0  0  0  0
   19.3300    5.2300   49.6000 H   0  0  0  0  0  0  0  0  0  0  0  0
   17.7200    5.7500   48.9800 H   0  0  0  0  0  0  0  0  0  0  0  0
   18.7800    4.3100   47.7300 C   0  0  0  0  0  0  0  0  0  0  0  0
   19.0100    5.1700   47.0600 H   0  0  0  0  0  0  0  0  0  0  0  0
   17.9200    3.7500   47.3000 H   0  0  0  0  0  0  0  0  0  0  0  0
   20.0400    3.4200   47.7800 C   0  0  0  0  0  0  0  0  0  0  0  0
   19.8900    2.5900   48.5100 H   0  0  0  0  0  0  0  0  0  0  0  0
   20.9000    4.0200   48.1300 H   0  0  0  0  0  0  0  0  0  0  0  0
   20.4600    2.8200   46.4200 C   0  0  0  0  0  0  0  0  0  0  0  0
   21.3700    2.2000   46.5900 H   0  0  0  0  0  0  0  0  0  0  0  0
   20.7200    3.6300   45.7000 H   0  0  0  0  0  0  0  0  0  0  0  0
   19.3900    1.9600   45.7700 C   0  0  0  0  0  0  0  0  0  0  0  0
   18.5900    2.6400   45.3900 H   0  0  0  0  0  0  0  0  0  0  0  0
   18.9600    1.2800   46.5400 H   0  0  0  0  0  0  0  0  0  0  0  0
   19.9200    1.0900   44.6300 C   0  0  0  0  0  0  0  0  0  0  0  0
   19.1400    0.3200   44.4300 H   0  0  0  0  0  0  0  0  0  0  0  0
   20.8600    0.5800   44.9400 H   0  0  0  0  0  0  0  0  0  0  0  0
   20.1700    1.8900   43.3500 C   0  0  0  0  0  0  0  0  0  0  0  0
   21.2100    2.3000   43.4000 H   0  0  0  0  0  0  0  0  0  0  0  0
   19.4700    2.7600   43.3700 H   0  0  0  0  0  0  0  0  0  0  0  0
   19.9300    1.1200   42.0500 C   0  0  0  0  0  0  0  0  0  0  0  0
   20.1700    1.7400   41.1600 H   0  0  0  0  0  0  0  0  0  0  0  0
   18.8600    0.8100   41.9900 H   0  0  0  0  0  0  0  0  0  0  0  0
   20.5500    0.1900   42.0000 H   0  0  0  0  0  0  0  0  0  0  0  0
  1  2  1  6  0  0  0
  1  5  1  0  0  0  0
  3  1  1  0  0  0  0
  3  4  1  0  0  0  0
  5  6  1  1  0  0  0
  5  7  1  0  0  0  0
  5  9  1  0  0  0  0
  7  8  1  0  0  0  0
  9 10  1  6  0  0  0
  9 11  1  0  0  0  0
 11 12  1  0  0  0  0
 13 14  1  6  0  0  0
 13  9  1  0  0  0  0
 13 15  1  0  0  0  0
 15 16  1  0  0  0  0
 16 18  1  0  0  0  0
 16 19  1  0  0  0  0
 17 16  2  0  0  0  0
 20 21  1  6  0  0  0
 20 13  1  0  0  0  0
 22 23  1  0  0  0  0
 22 20  1  0  0  0  0
 24 25  1  1  0  0  0
 24  1  1  0  0  0  0
 24 20  1  0  0  0  0
 26 30  1  6  0  0  0
 26 28  1  0  0  0  0
 26 29  1  0  0  0  0
 27 26  2  0  0  0  0
 29 24  1  0  0  0  0
 30 31  1  0  0  0  0
 31 34  1  0  0  0  0
 31 32  1  0  0  0  0
 33 31  1  0  0  0  0
 34 35  1  1  0  0  0
 36 37  1  0  0  0  0
 36 34  1  0  0  0  0
 37 38  2  0  0  0  0
 39 40  1  0  0  0  0
 39 37  1  0  0  0  0
 41 39  1  0  0  0  0
 42 44  1  0  0  0  0
 42 34  1  0  0  0  0
 42 43  1  0  0  0  0
 45 42  1  0  0  0  0
 46 47  2  0  0  0  0
 46 45  1  0  0  0  0
 48 49  1  0  0  0  0
 48 46  1  0  0  0  0
 50 48  1  0  0  0  0
 51 39  1  0  0  0  0
 51 53  1  0  0  0  0
 52 51  1  0  0  0  0
 54 55  1  0  0  0  0
 54 51  1  0  0  0  0
 56 54  1  0  0  0  0
 57 54  1  0  0  0  0
 57 58  1  0  0  0  0
 59 60  1  0  0  0  0
 59 57  2  0  0  0  0
 61 63  1  0  0  0  0
 61 62  1  0  0  0  0
 61 59  1  0  0  0  0
 64 61  1  0  0  0  0
 65 64  1  0  0  0  0
 66 64  2  0  0  0  0
 67 66  1  0  0  0  0
 68 66  1  0  0  0  0
 68 71  1  0  0  0  0
 68 70  1  0  0  0  0
 69 68  1  0  0  0  0
 71 72  1  0  0  0  0
 73 74  1  0  0  0  0
 73 71  2  0  0  0  0
 75 73  1  0  0  0  0
 76 75  1  0  0  0  0
 77 75  1  0  0  0  0
 78 75  1  0  0  0  0
 78 79  1  0  0  0  0
 80 81  1  0  0  0  0
 80 78  1  0  0  0  0
 82 84  1  0  0  0  0
 82 80  1  0  0  0  0
 83 82  1  0  0  0  0
 85 86  1  0  0  0  0
 85 82  1  0  0  0  0
 87 85  1  0  0  0  0
 88 89  1  0  0  0  0
 88 90  1  0  0  0  0
 88 85  1  0  0  0  0
 91 93  1  0  0  0  0
 91 88  1  0  0  0  0
 92 91  1  0  0  0  0
 94 96  1  0  0  0  0
 94 91  1  0  0  0  0
 95 94  1  0  0  0  0
 97 94  1  0  0  0  0
 98100  1  0  0  0  0
 98101  1  0  0  0  0
 98 48  1  0  0  0  0
 99 98  1  0  0  0  0
101102  1  0  0  0  0
103101  1  0  0  0  0
104107  1  0  0  0  0
104106  1  0  0  0  0
104101  1  0  0  0  0
105104  1  0  0  0  0
107108  1  0  0  0  0
109107  1  0  0  0  0
110111  1  0  0  0  0
110112  1  0  0  0  0
110107  1  0  0  0  0
113110  1  0  0  0  0
114113  1  0  0  0  0
115113  1  0  0  0  0
116118  1  0  0  0  0
116117  1  0  0  0  0
116113  1  0  0  0  0
119116  1  0  0  0  0
120119  1  0  0  0  0
121119  1  0  0  0  0
122123  1  0  0  0  0
122119  1  0  0  0  0
124122  1  0  0  0  0
125128  1  0  0  0  0
125122  1  0  0  0  0
126125  1  0  0  0  0
127125  1  0  0  0  0
128130  1  0  0  0  0
128129  1  0  0  0  0
131132  1  0  0  0  0
131128  1  0  0  0  0
133131  1  0  0  0  0
134131  1  0  0  0  0
134136  1  0  0  0  0
135134  1  0  0  0  0
137139  1  0  0  0  0
137134  1  0  0  0  0
138137  1  0  0  0  0
140142  1  0  0  0  0
140141  1  0  0  0  0
140137  1  0  0  0  0
143140  1  0  0  0  0
144143  1  0  0  0  0
145143  1  0  0  0  0
146143  1  0  0  0  0
M  END
