POPC
 OpenBabel02161614153D

134133  0  0  1  0  0  0  0  0999 V2000
    8.3500   17.3900   60.2800 N   0  0  0  0  0  0  0  0  0  0  0  0
    9.4900   18.2700   59.7300 C   0  0  0  0  0  0  0  0  0  0  0  0
   10.4200   18.1100   60.2700 H   0  0  0  0  0  0  0  0  0  0  0  0
    9.2600   19.3200   59.9000 H   0  0  0  0  0  0  0  0  0  0  0  0
    7.0400   17.9800   59.8500 C   0  0  0  0  0  0  0  0  0  0  0  0
    7.0400   19.0700   59.9400 H   0  0  0  0  0  0  0  0  0  0  0  0
    6.9100   17.8300   58.7800 H   0  0  0  0  0  0  0  0  0  0  0  0
    6.2000   17.5900   60.4000 H   0  0  0  0  0  0  0  0  0  0  0  0
    8.4300   15.9900   59.7400 C   0  0  0  0  0  0  0  0  0  0  0  0
    9.4700   15.7400   59.5800 H   0  0  0  0  0  0  0  0  0  0  0  0
    7.9600   15.2800   60.4100 H   0  0  0  0  0  0  0  0  0  0  0  0
    7.9700   15.9800   58.7500 H   0  0  0  0  0  0  0  0  0  0  0  0
    8.4200   17.4300   61.7600 C   0  0  0  0  0  0  0  0  0  0  0  0
    7.4900   17.1300   62.2100 H   0  0  0  0  0  0  0  0  0  0  0  0
    8.6600   18.4400   62.1300 H   0  0  0  0  0  0  0  0  0  0  0  0
    9.1900   16.7900   62.1400 H   0  0  0  0  0  0  0  0  0  0  0  0
    9.8300   18.1000   58.2400 C   0  0  0  0  0  0  0  0  0  0  0  0
   10.0800   17.0400   58.1000 H   0  0  0  0  0  0  0  0  0  0  0  0
   10.8100   18.6000   57.9900 H   0  0  0  0  0  0  0  0  0  0  0  0
    8.8400   19.9700   56.8400 P   0  0  2  0  0  0  0  0  0  0  0  0
   10.1000   20.0900   56.0800 O   0  0  0  0  0  0  0  0  0  0  0  0
    8.5700   20.8600   58.0000 O   0  0  0  0  0  0  0  0  0  0  0  0
    8.7300   18.4800   57.3900 O   0  0  0  0  0  0  0  0  0  0  0  0
    7.6400   20.1400   55.8200 O   0  0  0  0  0  0  0  0  0  0  0  0
    6.3500   19.5700   56.0200 C   0  0  0  0  0  0  0  0  0  0  0  0
    5.6500   20.3900   56.2600 H   0  0  0  0  0  0  0  0  0  0  0  0
    6.3500   18.8400   56.8600 H   0  0  0  0  0  0  0  0  0  0  0  0
    5.8500   18.7900   54.7800 C   0  0  2  0  0  0  0  0  0  0  0  0
    4.8800   18.3100   55.0500 H   0  0  0  0  0  0  0  0  0  0  0  0
    6.8300   17.8200   54.4500 O   0  0  0  0  0  0  0  0  0  0  0  0
    6.5900   16.5700   54.7700 C   0  0  0  0  0  0  0  0  0  0  0  0
    5.5400   16.1300   55.2300 O   0  0  0  0  0  0  0  0  0  0  0  0
    7.7600   15.7700   54.3000 C   0  0  0  0  0  0  0  0  0  0  0  0
    7.7100   14.7000   54.5900 H   0  0  0  0  0  0  0  0  0  0  0  0
    8.6800   16.2600   54.6900 H   0  0  0  0  0  0  0  0  0  0  0  0
    5.5700   19.6900   53.5500 C   0  0  0  0  0  0  0  0  0  0  0  0
    4.5700   20.1300   53.7200 H   0  0  0  0  0  0  0  0  0  0  0  0
    5.4900   19.0600   52.6200 H   0  0  0  0  0  0  0  0  0  0  0  0
    6.5200   20.7600   53.4200 O   0  0  0  0  0  0  0  0  0  0  0  0
    7.5000   20.5800   52.5500 C   0  0  0  0  0  0  0  0  0  0  0  0
    7.5800   19.6700   51.7500 O   0  0  0  0  0  0  0  0  0  0  0  0
    8.4100   21.8000   52.6100 C   0  0  0  0  0  0  0  0  0  0  0  0
    8.8300   21.8500   53.6400 H   0  0  0  0  0  0  0  0  0  0  0  0
    7.8100   22.7100   52.4200 H   0  0  0  0  0  0  0  0  0  0  0  0
    7.7700   15.9500   52.8000 C   0  0  0  0  0  0  0  0  0  0  0  0
    7.7600   17.0200   52.4600 H   0  0  0  0  0  0  0  0  0  0  0  0
    6.9600   15.3500   52.3300 H   0  0  0  0  0  0  0  0  0  0  0  0
    9.0000   15.4000   52.2500 C   0  0  0  0  0  0  0  0  0  0  0  0
    9.1900   14.4800   52.8600 H   0  0  0  0  0  0  0  0  0  0  0  0
    9.9100   16.0400   52.3600 H   0  0  0  0  0  0  0  0  0  0  0  0
    8.7000   15.0700   50.7800 C   0  0  0  0  0  0  0  0  0  0  0  0
    8.0700   14.1600   50.6600 H   0  0  0  0  0  0  0  0  0  0  0  0
    9.7300   14.8600   50.6200 H   0  0  0  0  0  0  0  0  0  0  0  0
    8.4600   16.1800   49.7300 C   0  0  0  0  0  0  0  0  0  0  0  0
    9.2600   16.9400   49.9300 H   0  0  0  0  0  0  0  0  0  0  0  0
    7.4600   16.5800   49.9700 H   0  0  0  0  0  0  0  0  0  0  0  0
    8.4700   15.8600   48.1900 C   0  0  0  0  0  0  0  0  0  0  0  0
    9.5000   15.7900   47.8100 H   0  0  0  0  0  0  0  0  0  0  0  0
    8.2900   16.7400   47.5700 H   0  0  0  0  0  0  0  0  0  0  0  0
    7.6700   14.6000   47.7400 C   0  0  0  0  0  0  0  0  0  0  0  0
    7.9400   13.6800   48.3000 H   0  0  0  0  0  0  0  0  0  0  0  0
    7.8800   14.3800   46.6600 H   0  0  0  0  0  0  0  0  0  0  0  0
    6.2300   14.9000   47.9500 C   0  0  0  0  0  0  0  0  0  0  0  0
    5.7800   14.4300   48.8300 H   0  0  0  0  0  0  0  0  0  0  0  0
    5.5200   15.6700   47.1100 C   0  0  0  0  0  0  0  0  0  0  0  0
    4.5000   15.9500   47.4000 H   0  0  0  0  0  0  0  0  0  0  0  0
    6.0800   16.3300   45.8700 C   0  0  0  0  0  0  0  0  0  0  0  0
    7.1100   15.9900   45.6200 H   0  0  0  0  0  0  0  0  0  0  0  0
    6.1300   17.4300   45.9800 H   0  0  0  0  0  0  0  0  0  0  0  0
    5.2300   16.0100   44.6400 C   0  0  0  0  0  0  0  0  0  0  0  0
    4.2700   16.5800   44.6600 H   0  0  0  0  0  0  0  0  0  0  0  0
    4.9900   14.9200   44.6100 H   0  0  0  0  0  0  0  0  0  0  0  0
    5.9800   16.3400   43.3600 C   0  0  0  0  0  0  0  0  0  0  0  0
    6.8900   15.7100   43.3800 H   0  0  0  0  0  0  0  0  0  0  0  0
    6.2700   17.4000   43.2200 H   0  0  0  0  0  0  0  0  0  0  0  0
    5.2000   15.9400   42.1500 C   0  0  0  0  0  0  0  0  0  0  0  0
    4.5000   16.7100   41.7800 H   0  0  0  0  0  0  0  0  0  0  0  0
    4.5100   15.1200   42.4100 H   0  0  0  0  0  0  0  0  0  0  0  0
    6.1500   15.5200   41.0600 C   0  0  0  0  0  0  0  0  0  0  0  0
    6.9400   14.7800   41.3000 H   0  0  0  0  0  0  0  0  0  0  0  0
    6.7200   16.4100   40.6700 H   0  0  0  0  0  0  0  0  0  0  0  0
    5.1800   14.9500   40.0400 C   0  0  0  0  0  0  0  0  0  0  0  0
    5.0300   15.9500   39.8000 H   0  0  0  0  0  0  0  0  0  0  0  0
    4.2100   14.5300   40.2700 H   0  0  0  0  0  0  0  0  0  0  0  0
    5.8400   14.1000   39.0500 C   0  0  0  0  0  0  0  0  0  0  0  0
    6.6100   13.5900   39.6200 H   0  0  0  0  0  0  0  0  0  0  0  0
    6.4200   14.7800   38.8700 H   0  0  0  0  0  0  0  0  0  0  0  0
    5.6000   13.6500   37.6000 C   0  0  0  0  0  0  0  0  0  0  0  0
    6.4400   13.2400   37.1000 H   0  0  0  0  0  0  0  0  0  0  0  0
    5.4800   14.1600   36.7000 H   0  0  0  0  0  0  0  0  0  0  0  0
    4.9500   12.8000   37.5900 H   0  0  0  0  0  0  0  0  0  0  0  0
    9.5600   21.6900   51.6100 C   0  0  0  0  0  0  0  0  0  0  0  0
    9.8800   20.6400   51.4400 H   0  0  0  0  0  0  0  0  0  0  0  0
   10.4300   22.1700   52.1100 H   0  0  0  0  0  0  0  0  0  0  0  0
    9.3100   22.4100   50.2800 C   0  0  0  0  0  0  0  0  0  0  0  0
   10.2400   22.3400   49.6800 H   0  0  0  0  0  0  0  0  0  0  0  0
    9.0600   23.4800   50.4500 H   0  0  0  0  0  0  0  0  0  0  0  0
    8.2100   21.8400   49.4100 C   0  0  0  0  0  0  0  0  0  0  0  0
    7.2300   22.0400   49.9000 H   0  0  0  0  0  0  0  0  0  0  0  0
    8.3500   20.7400   49.3200 H   0  0  0  0  0  0  0  0  0  0  0  0
    8.2600   22.5000   48.0300 C   0  0  0  0  0  0  0  0  0  0  0  0
    9.2100   22.3800   47.4900 H   0  0  0  0  0  0  0  0  0  0  0  0
    8.0500   23.5900   48.1500 H   0  0  0  0  0  0  0  0  0  0  0  0
    7.1500   21.9700   47.1600 C   0  0  0  0  0  0  0  0  0  0  0  0
    7.1800   22.4100   46.1400 H   0  0  0  0  0  0  0  0  0  0  0  0
    6.3400   22.4300   47.7800 H   0  0  0  0  0  0  0  0  0  0  0  0
    6.8400   20.4500   47.1200 C   0  0  0  0  0  0  0  0  0  0  0  0
    5.9300   20.1800   46.5400 H   0  0  0  0  0  0  0  0  0  0  0  0
    6.6000   20.1300   48.1600 H   0  0  0  0  0  0  0  0  0  0  0  0
    7.9900   19.6400   46.5700 C   0  0  0  0  0  0  0  0  0  0  0  0
    7.9600   18.6500   47.0600 H   0  0  0  0  0  0  0  0  0  0  0  0
    8.9200   20.1600   46.8900 H   0  0  0  0  0  0  0  0  0  0  0  0
    7.9900   19.4800   45.0600 C   0  0  0  0  0  0  0  0  0  0  0  0
    7.9700   20.4800   44.5600 H   0  0  0  0  0  0  0  0  0  0  0  0
    7.0800   18.9300   44.7200 H   0  0  0  0  0  0  0  0  0  0  0  0
    9.2100   18.7100   44.5900 C   0  0  0  0  0  0  0  0  0  0  0  0
    9.1700   17.6600   44.9700 H   0  0  0  0  0  0  0  0  0  0  0  0
   10.1500   19.1800   44.9500 H   0  0  0  0  0  0  0  0  0  0  0  0
    9.2600   18.6500   43.0900 C   0  0  0  0  0  0  0  0  0  0  0  0
    8.9100   19.6600   42.8100 H   0  0  0  0  0  0  0  0  0  0  0  0
    8.4800   17.9800   42.6800 H   0  0  0  0  0  0  0  0  0  0  0  0
   10.7100   18.3000   42.6700 C   0  0  0  0  0  0  0  0  0  0  0  0
   11.0300   17.4900   43.2900 H   0  0  0  0  0  0  0  0  0  0  0  0
   11.4500   19.0900   42.9200 H   0  0  0  0  0  0  0  0  0  0  0  0
   11.0100   17.8900   41.2500 C   0  0  0  0  0  0  0  0  0  0  0  0
   10.0900   17.5900   40.7100 H   0  0  0  0  0  0  0  0  0  0  0  0
   11.7200   17.0500   41.1200 H   0  0  0  0  0  0  0  0  0  0  0  0
   11.5900   19.1600   40.6900 C   0  0  0  0  0  0  0  0  0  0  0  0
   11.5800   18.6100   39.7200 H   0  0  0  0  0  0  0  0  0  0  0  0
   12.6200   19.4400   40.4900 H   0  0  0  0  0  0  0  0  0  0  0  0
   10.6500   20.3500   41.0900 C   0  0  0  0  0  0  0  0  0  0  0  0
    9.6400   19.9700   41.2100 H   0  0  0  0  0  0  0  0  0  0  0  0
   10.0000   20.9100   40.4100 H   0  0  0  0  0  0  0  0  0  0  0  0
   11.0800   21.3000   41.3900 H   0  0  0  0  0  0  0  0  0  0  0  0
  1 13  1  0  0  0  0
  2  4  1  0  0  0  0
  2  3  1  0  0  0  0
  2  1  1  0  0  0  0
  5  6  1  0  0  0  0
  5  1  1  0  0  0  0
  5  8  1  0  0  0  0
  7  5  1  0  0  0  0
  9  1  1  0  0  0  0
  9 11  1  0  0  0  0
 10  9  1  0  0  0  0
 12  9  1  0  0  0  0
 13 15  1  0  0  0  0
 13 16  1  0  0  0  0
 13 14  1  0  0  0  0
 17  2  1  0  0  0  0
 18 17  1  0  0  0  0
 19 17  1  0  0  0  0
 20 24  1  6  0  0  0
 20 23  1  0  0  0  0
 20 22  1  0  0  0  0
 21 20  2  0  0  0  0
 23 17  1  0  0  0  0
 24 25  1  0  0  0  0
 25 26  1  0  0  0  0
 25 27  1  0  0  0  0
 28 29  1  1  0  0  0
 28 25  1  0  0  0  0
 30 31  1  0  0  0  0
 30 28  1  0  0  0  0
 31 32  2  0  0  0  0
 33 34  1  0  0  0  0
 33 35  1  0  0  0  0
 33 31  1  0  0  0  0
 36 37  1  0  0  0  0
 36 28  1  0  0  0  0
 38 36  1  0  0  0  0
 39 36  1  0  0  0  0
 40 42  1  0  0  0  0
 40 39  1  0  0  0  0
 41 40  2  0  0  0  0
 42 43  1  0  0  0  0
 44 42  1  0  0  0  0
 45 33  1  0  0  0  0
 46 45  1  0  0  0  0
 47 45  1  0  0  0  0
 48 50  1  0  0  0  0
 48 45  1  0  0  0  0
 48 49  1  0  0  0  0
 51 48  1  0  0  0  0
 52 51  1  0  0  0  0
 53 51  1  0  0  0  0
 54 55  1  0  0  0  0
 54 56  1  0  0  0  0
 54 51  1  0  0  0  0
 57 54  1  0  0  0  0
 58 57  1  0  0  0  0
 59 57  1  0  0  0  0
 60 63  1  0  0  0  0
 60 57  1  0  0  0  0
 60 61  1  0  0  0  0
 62 60  1  0  0  0  0
 63 64  1  0  0  0  0
 65 66  1  0  0  0  0
 65 63  2  0  0  0  0
 67 69  1  0  0  0  0
 67 65  1  0  0  0  0
 68 67  1  0  0  0  0
 70 71  1  0  0  0  0
 70 67  1  0  0  0  0
 72 70  1  0  0  0  0
 73 74  1  0  0  0  0
 73 70  1  0  0  0  0
 75 73  1  0  0  0  0
 76 78  1  0  0  0  0
 76 73  1  0  0  0  0
 77 76  1  0  0  0  0
 79 80  1  0  0  0  0
 79 76  1  0  0  0  0
 81 79  1  0  0  0  0
 82 84  1  0  0  0  0
 82 79  1  0  0  0  0
 83 82  1  0  0  0  0
 85 86  1  0  0  0  0
 85 82  1  0  0  0  0
 87 85  1  0  0  0  0
 88 85  1  0  0  0  0
 89 88  1  0  0  0  0
 90 88  1  0  0  0  0
 91 88  1  0  0  0  0
 92 94  1  0  0  0  0
 92 42  1  0  0  0  0
 93 92  1  0  0  0  0
 95 97  1  0  0  0  0
 95 92  1  0  0  0  0
 96 95  1  0  0  0  0
 98 99  1  0  0  0  0
 98 95  1  0  0  0  0
100 98  1  0  0  0  0
101103  1  0  0  0  0
101 98  1  0  0  0  0
102101  1  0  0  0  0
104106  1  0  0  0  0
104101  1  0  0  0  0
105104  1  0  0  0  0
107104  1  0  0  0  0
107109  1  0  0  0  0
108107  1  0  0  0  0
110112  1  0  0  0  0
110111  1  0  0  0  0
110107  1  0  0  0  0
113110  1  0  0  0  0
114113  1  0  0  0  0
115113  1  0  0  0  0
116118  1  0  0  0  0
116117  1  0  0  0  0
116113  1  0  0  0  0
119116  1  0  0  0  0
120119  1  0  0  0  0
121119  1  0  0  0  0
122124  1  0  0  0  0
122119  1  0  0  0  0
122123  1  0  0  0  0
125122  1  0  0  0  0
126125  1  0  0  0  0
127125  1  0  0  0  0
128131  1  0  0  0  0
128125  1  0  0  0  0
129128  1  0  0  0  0
130128  1  0  0  0  0
131132  1  0  0  0  0
131134  1  0  0  0  0
133131  1  0  0  0  0
M  END
