DMPI14
 OpenBabel02161614153D

124124  0  0  1  0  0  0  0  0999 V2000
   53.8400   53.2300   60.2800 C   0  0  2  0  0  0  0  0  0  0  0  0
   54.1200   54.0000   59.5300 H   0  0  0  0  0  0  0  0  0  0  0  0
   55.0000   52.3900   60.4600 O   0  0  0  0  0  0  0  0  0  0  0  0
   54.9900   52.1200   61.3700 H   0  0  0  0  0  0  0  0  0  0  0  0
   53.4100   53.9500   61.5300 C   0  0  2  0  0  0  0  0  0  0  0  0
   52.6400   54.7200   61.4200 H   0  0  0  0  0  0  0  0  0  0  0  0
   54.5400   54.6900   61.7100 O   0  0  0  0  0  0  0  0  0  0  0  0
   54.9700   54.4200   62.5400 H   0  0  0  0  0  0  0  0  0  0  0  0
   52.9800   53.0200   62.6800 C   0  0  1  0  0  0  0  0  0  0  0  0
   53.8500   52.3900   62.9800 H   0  0  0  0  0  0  0  0  0  0  0  0
   52.4000   53.7600   63.7900 O   0  0  0  0  0  0  0  0  0  0  0  0
   52.9500   53.3900   65.3000 P   0  0  0  0  0  0  0  0  0  0  0  0
   52.5400   51.9900   65.7100 O   0  0  0  0  0  0  0  0  0  0  0  0
   52.2800   54.3900   66.2500 O   0  0  0  0  0  0  0  0  0  0  0  0
   54.4300   53.4600   65.1100 O   0  0  0  0  0  0  0  0  0  0  0  0
   51.8500   52.1900   62.1100 C   0  0  2  0  0  0  0  0  0  0  0  0
   51.0100   52.8700   61.8900 H   0  0  0  0  0  0  0  0  0  0  0  0
   51.3900   51.2100   63.0500 O   0  0  0  0  0  0  0  0  0  0  0  0
   52.1000   50.5700   63.1300 H   0  0  0  0  0  0  0  0  0  0  0  0
   52.3200   51.4800   60.8400 C   0  0  1  0  0  0  0  0  0  0  0  0
   53.2100   50.8500   61.0700 H   0  0  0  0  0  0  0  0  0  0  0  0
   51.2900   50.6600   60.3500 O   0  0  0  0  0  0  0  0  0  0  0  0
   51.2000   49.8500   60.8600 H   0  0  0  0  0  0  0  0  0  0  0  0
   52.7000   52.4600   59.7600 C   0  0  2  0  0  0  0  0  0  0  0  0
   51.8400   53.1600   59.5800 H   0  0  0  0  0  0  0  0  0  0  0  0
   53.0300   52.6300   57.1600 P   0  0  2  0  0  0  0  0  0  0  0  0
   51.5900   52.7100   56.8200 O   0  0  0  0  0  0  0  0  0  0  0  0
   53.7900   53.9000   57.2200 O   0  0  0  0  0  0  0  0  0  0  0  0
   53.7700   51.6400   56.1900 O   0  0  0  0  0  0  0  0  0  0  0  0
   53.1600   51.8000   58.5700 O   0  0  0  0  0  0  0  0  0  0  0  0
   53.5000   50.2500   56.2300 C   0  0  0  0  0  0  0  0  0  0  0  0
   52.4800   50.0300   56.6200 H   0  0  0  0  0  0  0  0  0  0  0  0
   54.2300   49.7300   56.9000 H   0  0  0  0  0  0  0  0  0  0  0  0
   53.6600   49.6900   54.8200 C   0  0  2  0  0  0  0  0  0  0  0  0
   54.7100   49.8200   54.4500 H   0  0  0  0  0  0  0  0  0  0  0  0
   52.7000   50.2500   53.9200 O   0  0  0  0  0  0  0  0  0  0  0  0
   53.0500   51.3400   53.3500 C   0  0  0  0  0  0  0  0  0  0  0  0
   54.1600   51.8500   53.3100 O   0  0  0  0  0  0  0  0  0  0  0  0
   51.8300   51.8000   52.5700 C   0  0  0  0  0  0  0  0  0  0  0  0
   51.2200   52.4100   53.2700 H   0  0  0  0  0  0  0  0  0  0  0  0
   51.2300   50.9200   52.2300 H   0  0  0  0  0  0  0  0  0  0  0  0
   53.3900   48.2200   54.8200 C   0  0  0  0  0  0  0  0  0  0  0  0
   52.5300   48.0100   55.5200 H   0  0  0  0  0  0  0  0  0  0  0  0
   54.3200   47.7800   55.2500 H   0  0  0  0  0  0  0  0  0  0  0  0
   53.0500   47.8600   53.4600 O   0  0  0  0  0  0  0  0  0  0  0  0
   54.0200   47.5600   52.6000 C   0  0  0  0  0  0  0  0  0  0  0  0
   55.2000   47.4600   52.8900 O   0  0  0  0  0  0  0  0  0  0  0  0
   53.3400   46.8700   51.3800 C   0  0  0  0  0  0  0  0  0  0  0  0
   52.6500   46.2100   51.8600 H   0  0  0  0  0  0  0  0  0  0  0  0
   53.9500   46.1000   50.8800 H   0  0  0  0  0  0  0  0  0  0  0  0
   52.3200   52.5700   51.3600 C   0  0  0  0  0  0  0  0  0  0  0  0
   52.9600   51.9100   50.7300 H   0  0  0  0  0  0  0  0  0  0  0  0
   52.8900   53.4600   51.7200 H   0  0  0  0  0  0  0  0  0  0  0  0
   51.2200   53.1500   50.5000 C   0  0  0  0  0  0  0  0  0  0  0  0
   50.6700   53.7300   51.2600 H   0  0  0  0  0  0  0  0  0  0  0  0
   50.5800   52.3500   50.0600 H   0  0  0  0  0  0  0  0  0  0  0  0
   51.7400   54.0900   49.4100 C   0  0  0  0  0  0  0  0  0  0  0  0
   52.4900   54.7700   49.8800 H   0  0  0  0  0  0  0  0  0  0  0  0
   50.9400   54.7200   48.9800 H   0  0  0  0  0  0  0  0  0  0  0  0
   52.4000   53.3100   48.2800 C   0  0  0  0  0  0  0  0  0  0  0  0
   51.6700   52.6100   47.8200 H   0  0  0  0  0  0  0  0  0  0  0  0
   53.2100   52.7000   48.7300 H   0  0  0  0  0  0  0  0  0  0  0  0
   52.9600   54.2300   47.1900 C   0  0  0  0  0  0  0  0  0  0  0  0
   52.7200   55.3000   47.3500 H   0  0  0  0  0  0  0  0  0  0  0  0
   52.4800   53.9300   46.2300 H   0  0  0  0  0  0  0  0  0  0  0  0
   54.4800   54.0900   47.0700 C   0  0  0  0  0  0  0  0  0  0  0  0
   54.8200   53.1200   47.5000 H   0  0  0  0  0  0  0  0  0  0  0  0
   54.9600   54.8900   47.6600 H   0  0  0  0  0  0  0  0  0  0  0  0
   54.9000   54.0900   45.6000 C   0  0  0  0  0  0  0  0  0  0  0  0
   54.6800   55.0900   45.1500 H   0  0  0  0  0  0  0  0  0  0  0  0
   54.3100   53.3300   45.0500 H   0  0  0  0  0  0  0  0  0  0  0  0
   56.3800   53.7400   45.4500 C   0  0  0  0  0  0  0  0  0  0  0  0
   56.5300   52.6400   45.5400 H   0  0  0  0  0  0  0  0  0  0  0  0
   56.9300   54.2300   46.2800 H   0  0  0  0  0  0  0  0  0  0  0  0
   56.9600   54.2600   44.1400 C   0  0  0  0  0  0  0  0  0  0  0  0
   58.0700   54.3100   44.2400 H   0  0  0  0  0  0  0  0  0  0  0  0
   56.5600   55.2800   43.9800 H   0  0  0  0  0  0  0  0  0  0  0  0
   56.5200   53.5900   42.8400 C   0  0  0  0  0  0  0  0  0  0  0  0
   57.0000   54.1700   42.0100 H   0  0  0  0  0  0  0  0  0  0  0  0
   55.4100   53.6800   42.7100 H   0  0  0  0  0  0  0  0  0  0  0  0
   56.9300   52.1600   42.6800 C   0  0  0  0  0  0  0  0  0  0  0  0
   56.2100   51.4600   43.1600 H   0  0  0  0  0  0  0  0  0  0  0  0
   57.9300   51.9700   43.1400 H   0  0  0  0  0  0  0  0  0  0  0  0
   57.0000   51.8500   41.2100 C   0  0  0  0  0  0  0  0  0  0  0  0
   56.1900   52.2600   40.5800 H   0  0  0  0  0  0  0  0  0  0  0  0
   57.9900   52.1200   40.7800 H   0  0  0  0  0  0  0  0  0  0  0  0
   56.7700   50.7800   41.2000 H   0  0  0  0  0  0  0  0  0  0  0  0
   52.0900   47.4600   50.8000 C   0  0  0  0  0  0  0  0  0  0  0  0
   51.2700   47.6100   51.5600 H   0  0  0  0  0  0  0  0  0  0  0  0
   51.6700   46.8000   50.0100 H   0  0  0  0  0  0  0  0  0  0  0  0
   52.6100   48.7100   50.2700 C   0  0  0  0  0  0  0  0  0  0  0  0
   52.9200   49.3200   51.1500 H   0  0  0  0  0  0  0  0  0  0  0  0
   51.7700   49.1900   49.7500 H   0  0  0  0  0  0  0  0  0  0  0  0
   53.8300   48.5200   49.3500 C   0  0  0  0  0  0  0  0  0  0  0  0
   53.7200   47.6500   48.6700 H   0  0  0  0  0  0  0  0  0  0  0  0
   54.7800   48.3500   49.9100 H   0  0  0  0  0  0  0  0  0  0  0  0
   53.9700   49.8500   48.6300 C   0  0  0  0  0  0  0  0  0  0  0  0
   54.1400   50.5900   49.4300 H   0  0  0  0  0  0  0  0  0  0  0  0
   53.0100   50.0800   48.1200 H   0  0  0  0  0  0  0  0  0  0  0  0
   55.2000   49.9700   47.7500 C   0  0  0  0  0  0  0  0  0  0  0  0
   56.0700   49.5900   48.3600 H   0  0  0  0  0  0  0  0  0  0  0  0
   55.3900   50.9900   47.3800 H   0  0  0  0  0  0  0  0  0  0  0  0
   55.1300   49.1300   46.5200 C   0  0  0  0  0  0  0  0  0  0  0  0
   55.4100   48.2100   47.0600 H   0  0  0  0  0  0  0  0  0  0  0  0
   55.9600   49.2900   45.8000 H   0  0  0  0  0  0  0  0  0  0  0  0
   53.7600   49.1800   45.7900 C   0  0  0  0  0  0  0  0  0  0  0  0
   53.4100   50.2200   45.8400 H   0  0  0  0  0  0  0  0  0  0  0  0
   53.0300   48.4800   46.2700 H   0  0  0  0  0  0  0  0  0  0  0  0
   53.7100   48.9400   44.2700 C   0  0  0  0  0  0  0  0  0  0  0  0
   53.8000   47.9100   44.2700 H   0  0  0  0  0  0  0  0  0  0  0  0
   54.5900   49.2500   43.6800 H   0  0  0  0  0  0  0  0  0  0  0  0
   52.3400   48.8900   43.5700 C   0  0  0  0  0  0  0  0  0  0  0  0
   52.2300   49.9200   43.1800 H   0  0  0  0  0  0  0  0  0  0  0  0
   51.5600   48.5900   44.3000 H   0  0  0  0  0  0  0  0  0  0  0  0
   52.1800   47.9500   42.3700 C   0  0  0  0  0  0  0  0  0  0  0  0
   51.1500   47.7100   42.0600 H   0  0  0  0  0  0  0  0  0  0  0  0
   52.6200   46.9700   42.6000 H   0  0  0  0  0  0  0  0  0  0  0  0
   52.8100   48.5900   41.1600 C   0  0  0  0  0  0  0  0  0  0  0  0
   52.6800   47.8300   40.3500 H   0  0  0  0  0  0  0  0  0  0  0  0
   53.8600   48.8600   41.4700 H   0  0  0  0  0  0  0  0  0  0  0  0
   52.2500   49.7000   40.3400 C   0  0  0  0  0  0  0  0  0  0  0  0
   52.0800   50.5900   40.9600 H   0  0  0  0  0  0  0  0  0  0  0  0
   53.0100   49.9000   39.5400 H   0  0  0  0  0  0  0  0  0  0  0  0
   51.3300   49.2900   39.8500 H   0  0  0  0  0  0  0  0  0  0  0  0
  1  2  1  6  0  0  0
  1  3  1  0  0  0  0
  1  5  1  0  0  0  0
  3  4  1  0  0  0  0
  5  6  1  6  0  0  0
  5  7  1  0  0  0  0
  5  9  1  0  0  0  0
  7  8  1  0  0  0  0
  9 10  1  1  0  0  0
  9 11  1  0  0  0  0
 11 12  1  0  0  0  0
 12 13  1  0  0  0  0
 12 14  1  0  0  0  0
 15 12  2  0  0  0  0
 16 17  1  6  0  0  0
 16  9  1  0  0  0  0
 16 18  1  0  0  0  0
 18 19  1  0  0  0  0
 20 21  1  1  0  0  0
 20 16  1  0  0  0  0
 22 20  1  0  0  0  0
 22 23  1  0  0  0  0
 24 25  1  6  0  0  0
 24  1  1  0  0  0  0
 24 20  1  0  0  0  0
 26 29  1  6  0  0  0
 26 28  1  0  0  0  0
 26 30  1  0  0  0  0
 27 26  2  0  0  0  0
 29 31  1  0  0  0  0
 30 24  1  0  0  0  0
 31 32  1  0  0  0  0
 31 33  1  0  0  0  0
 34 35  1  6  0  0  0
 34 31  1  0  0  0  0
 36 34  1  0  0  0  0
 37 36  1  0  0  0  0
 38 37  2  0  0  0  0
 39 40  1  0  0  0  0
 39 37  1  0  0  0  0
 41 39  1  0  0  0  0
 42 34  1  0  0  0  0
 42 44  1  0  0  0  0
 42 43  1  0  0  0  0
 45 42  1  0  0  0  0
 46 47  2  0  0  0  0
 46 45  1  0  0  0  0
 48 49  1  0  0  0  0
 48 46  1  0  0  0  0
 50 48  1  0  0  0  0
 51 53  1  0  0  0  0
 51 39  1  0  0  0  0
 52 51  1  0  0  0  0
 54 55  1  0  0  0  0
 54 51  1  0  0  0  0
 56 54  1  0  0  0  0
 57 58  1  0  0  0  0
 57 54  1  0  0  0  0
 59 57  1  0  0  0  0
 60 62  1  0  0  0  0
 60 57  1  0  0  0  0
 61 60  1  0  0  0  0
 63 64  1  0  0  0  0
 63 60  1  0  0  0  0
 65 63  1  0  0  0  0
 66 63  1  0  0  0  0
 66 67  1  0  0  0  0
 66 68  1  0  0  0  0
 69 66  1  0  0  0  0
 70 69  1  0  0  0  0
 71 69  1  0  0  0  0
 72 73  1  0  0  0  0
 72 69  1  0  0  0  0
 72 74  1  0  0  0  0
 75 76  1  0  0  0  0
 75 72  1  0  0  0  0
 77 75  1  0  0  0  0
 78 75  1  0  0  0  0
 79 78  1  0  0  0  0
 80 78  1  0  0  0  0
 81 78  1  0  0  0  0
 81 83  1  0  0  0  0
 81 82  1  0  0  0  0
 84 81  1  0  0  0  0
 85 84  1  0  0  0  0
 86 84  1  0  0  0  0
 87 84  1  0  0  0  0
 88 48  1  0  0  0  0
 88 89  1  0  0  0  0
 90 88  1  0  0  0  0
 91 88  1  0  0  0  0
 91 92  1  0  0  0  0
 93 91  1  0  0  0  0
 94 96  1  0  0  0  0
 94 91  1  0  0  0  0
 95 94  1  0  0  0  0
 97 94  1  0  0  0  0
 97 98  1  0  0  0  0
 99 97  1  0  0  0  0
100101  1  0  0  0  0
100 97  1  0  0  0  0
102100  1  0  0  0  0
103104  1  0  0  0  0
103100  1  0  0  0  0
105103  1  0  0  0  0
106107  1  0  0  0  0
106108  1  0  0  0  0
106103  1  0  0  0  0
109110  1  0  0  0  0
109106  1  0  0  0  0
111109  1  0  0  0  0
112109  1  0  0  0  0
112114  1  0  0  0  0
113112  1  0  0  0  0
115117  1  0  0  0  0
115112  1  0  0  0  0
116115  1  0  0  0  0
118120  1  0  0  0  0
118115  1  0  0  0  0
119118  1  0  0  0  0
121122  1  0  0  0  0
121118  1  0  0  0  0
123121  1  0  0  0  0
124121  1  0  0  0  0
M  END
