23SM
 OpenBabel02161614153D

148147  0  0  1  0  0  0  0  0999 V2000
   71.8300   60.8300   66.8600 N   0  0  0  0  0  0  0  0  0  0  0  0
   72.5200   59.9700   67.8800 C   0  0  0  0  0  0  0  0  0  0  0  0
   71.8300   59.2400   68.2500 H   0  0  0  0  0  0  0  0  0  0  0  0
   72.8900   60.6000   68.6900 H   0  0  0  0  0  0  0  0  0  0  0  0
   73.3600   59.4700   67.4000 H   0  0  0  0  0  0  0  0  0  0  0  0
   70.8300   61.6700   67.5700 C   0  0  0  0  0  0  0  0  0  0  0  0
   70.1900   62.2400   66.9000 H   0  0  0  0  0  0  0  0  0  0  0  0
   71.4300   62.3300   68.1800 H   0  0  0  0  0  0  0  0  0  0  0  0
   70.2000   61.1400   68.2600 H   0  0  0  0  0  0  0  0  0  0  0  0
   72.7700   61.8400   66.3000 C   0  0  0  0  0  0  0  0  0  0  0  0
   73.6500   61.4200   65.8200 H   0  0  0  0  0  0  0  0  0  0  0  0
   73.1500   62.5100   67.0900 H   0  0  0  0  0  0  0  0  0  0  0  0
   72.2200   62.4400   65.6100 H   0  0  0  0  0  0  0  0  0  0  0  0
   71.2300   59.9800   65.7700 C   0  0  0  0  0  0  0  0  0  0  0  0
   71.0500   60.6000   64.9100 H   0  0  0  0  0  0  0  0  0  0  0  0
   70.3100   59.5400   66.1300 H   0  0  0  0  0  0  0  0  0  0  0  0
   72.0400   58.8100   65.1900 C   0  0  0  0  0  0  0  0  0  0  0  0
   71.4400   58.5000   64.3100 H   0  0  0  0  0  0  0  0  0  0  0  0
   72.0900   57.9800   65.9400 H   0  0  0  0  0  0  0  0  0  0  0  0
   74.3000   58.1100   64.2000 P   0  0  2  0  0  0  0  0  0  0  0  0
   75.4500   58.1500   65.1300 O   0  0  0  0  0  0  0  0  0  0  0  0
   73.6100   56.8200   64.0100 O   0  0  0  0  0  0  0  0  0  0  0  0
   74.7300   58.7600   62.7900 O   0  0  0  0  0  0  0  0  0  0  0  0
   73.3100   59.2300   64.7500 O   0  0  0  0  0  0  0  0  0  0  0  0
   73.7400   59.5600   62.1200 C   0  0  0  0  0  0  0  0  0  0  0  0
   73.7600   60.6000   62.5100 H   0  0  0  0  0  0  0  0  0  0  0  0
   72.7200   59.1700   62.3300 H   0  0  0  0  0  0  0  0  0  0  0  0
   73.2700   58.4100   59.9800 N   0  0  0  0  0  0  0  0  0  0  0  0
   73.8800   58.0500   59.2800 H   0  0  0  0  0  0  0  0  0  0  0  0
   73.8100   59.5700   60.5500 C   0  0  2  0  0  0  0  0  0  0  0  0
   73.1900   60.3600   60.1600 H   0  0  0  0  0  0  0  0  0  0  0  0
   75.2100   59.7900   59.9600 C   0  0  2  0  0  0  0  0  0  0  0  0
   75.8300   58.9200   60.2600 H   0  0  0  0  0  0  0  0  0  0  0  0
   75.8100   60.9700   60.4800 O   0  0  0  0  0  0  0  0  0  0  0  0
   75.1100   61.4200   60.9200 H   0  0  0  0  0  0  0  0  0  0  0  0
   75.1300   59.9300   58.4400 C   0  0  0  0  0  0  0  0  0  0  0  0
   74.4200   60.6500   58.0300 H   0  0  0  0  0  0  0  0  0  0  0  0
   75.9100   59.2500   57.5900 C   0  0  0  0  0  0  0  0  0  0  0  0
   76.6900   58.6100   58.0400 H   0  0  0  0  0  0  0  0  0  0  0  0
   75.9100   59.3200   56.0600 C   0  0  0  0  0  0  0  0  0  0  0  0
   75.7200   58.3000   55.6700 H   0  0  0  0  0  0  0  0  0  0  0  0
   76.9400   59.6000   55.7200 H   0  0  0  0  0  0  0  0  0  0  0  0
   74.9700   60.2900   55.2700 C   0  0  0  0  0  0  0  0  0  0  0  0
   75.1100   61.2800   55.7600 H   0  0  0  0  0  0  0  0  0  0  0  0
   73.9300   59.9200   55.3900 H   0  0  0  0  0  0  0  0  0  0  0  0
   75.1600   60.5300   53.7300 C   0  0  0  0  0  0  0  0  0  0  0  0
   75.9800   61.2500   53.5300 H   0  0  0  0  0  0  0  0  0  0  0  0
   74.2400   61.0200   53.3400 H   0  0  0  0  0  0  0  0  0  0  0  0
   75.4300   59.2800   52.8800 C   0  0  0  0  0  0  0  0  0  0  0  0
   74.5500   58.6100   52.9000 H   0  0  0  0  0  0  0  0  0  0  0  0
   76.2700   58.7300   53.3800 H   0  0  0  0  0  0  0  0  0  0  0  0
   75.7900   59.5400   51.4000 C   0  0  0  0  0  0  0  0  0  0  0  0
   76.5400   60.3600   51.3000 H   0  0  0  0  0  0  0  0  0  0  0  0
   74.9000   59.8700   50.8300 H   0  0  0  0  0  0  0  0  0  0  0  0
   76.3300   58.2800   50.7000 C   0  0  0  0  0  0  0  0  0  0  0  0
   75.5600   57.4800   50.7800 H   0  0  0  0  0  0  0  0  0  0  0  0
   77.2200   57.9300   51.2500 H   0  0  0  0  0  0  0  0  0  0  0  0
   76.6300   58.6200   49.2100 C   0  0  0  0  0  0  0  0  0  0  0  0
   77.5600   59.2200   49.2400 H   0  0  0  0  0  0  0  0  0  0  0  0
   75.8100   59.2900   48.8500 H   0  0  0  0  0  0  0  0  0  0  0  0
   76.8400   57.4300   48.2500 C   0  0  0  0  0  0  0  0  0  0  0  0
   75.9600   56.7500   48.3300 H   0  0  0  0  0  0  0  0  0  0  0  0
   77.7600   56.9000   48.6000 H   0  0  0  0  0  0  0  0  0  0  0  0
   77.0100   57.7500   46.7400 C   0  0  0  0  0  0  0  0  0  0  0  0
   77.2900   56.8100   46.2100 H   0  0  0  0  0  0  0  0  0  0  0  0
   77.8000   58.5200   46.5400 H   0  0  0  0  0  0  0  0  0  0  0  0
   75.7000   58.1800   46.0900 C   0  0  0  0  0  0  0  0  0  0  0  0
   75.4300   59.1900   46.4600 H   0  0  0  0  0  0  0  0  0  0  0  0
   74.9400   57.4600   46.4400 H   0  0  0  0  0  0  0  0  0  0  0  0
   75.7300   58.1900   44.5400 C   0  0  0  0  0  0  0  0  0  0  0  0
   76.5100   58.9200   44.2500 H   0  0  0  0  0  0  0  0  0  0  0  0
   74.7500   58.5800   44.2000 H   0  0  0  0  0  0  0  0  0  0  0  0
   75.9500   56.8100   43.8600 C   0  0  0  0  0  0  0  0  0  0  0  0
   75.3400   56.0300   44.3500 H   0  0  0  0  0  0  0  0  0  0  0  0
   77.0000   56.5200   44.0600 H   0  0  0  0  0  0  0  0  0  0  0  0
   75.7300   56.7700   42.3300 C   0  0  0  0  0  0  0  0  0  0  0  0
   74.9300   56.0600   41.9900 H   0  0  0  0  0  0  0  0  0  0  0  0
   76.6600   56.4600   41.8100 H   0  0  0  0  0  0  0  0  0  0  0  0
   75.4800   57.7900   41.9700 H   0  0  0  0  0  0  0  0  0  0  0  0
   72.0400   58.0100   60.2400 C   0  0  0  0  0  0  0  0  0  0  0  0
   71.1900   58.7000   60.7800 O   0  0  0  0  0  0  0  0  0  0  0  0
   71.7300   56.7500   59.6800 C   0  0  0  0  0  0  0  0  0  0  0  0
   71.2400   56.0900   60.4400 H   0  0  0  0  0  0  0  0  0  0  0  0
   72.6500   56.1900   59.3800 H   0  0  0  0  0  0  0  0  0  0  0  0
   70.8500   57.3900   58.5500 C   0  0  0  0  0  0  0  0  0  0  0  0
   69.7800   57.5800   58.7100 H   0  0  0  0  0  0  0  0  0  0  0  0
   70.0500   56.7300   58.5000 H   0  0  0  0  0  0  0  0  0  0  0  0
   71.4500   57.6300   57.0700 C   0  0  0  0  0  0  0  0  0  0  0  0
   72.5200   57.2800   56.9900 H   0  0  0  0  0  0  0  0  0  0  0  0
   71.3700   58.7200   57.0700 H   0  0  0  0  0  0  0  0  0  0  0  0
   70.6600   57.2200   55.7400 C   0  0  0  0  0  0  0  0  0  0  0  0
   69.6000   57.1900   55.9800 H   0  0  0  0  0  0  0  0  0  0  0  0
   70.5800   56.2100   55.3300 H   0  0  0  0  0  0  0  0  0  0  0  0
   71.0200   57.8400   54.4200 C   0  0  0  0  0  0  0  0  0  0  0  0
   72.0100   57.4400   54.0800 H   0  0  0  0  0  0  0  0  0  0  0  0
   71.0300   58.9100   54.6900 H   0  0  0  0  0  0  0  0  0  0  0  0
   69.9000   57.4500   53.4500 C   0  0  0  0  0  0  0  0  0  0  0  0
   68.9400   57.6300   54.0000 H   0  0  0  0  0  0  0  0  0  0  0  0
   69.9400   56.3800   53.1800 H   0  0  0  0  0  0  0  0  0  0  0  0
   69.9300   58.2400   52.1600 C   0  0  0  0  0  0  0  0  0  0  0  0
   70.6800   57.7800   51.4800 H   0  0  0  0  0  0  0  0  0  0  0  0
   70.2400   59.2800   52.4100 H   0  0  0  0  0  0  0  0  0  0  0  0
   68.5800   58.2400   51.4700 C   0  0  0  0  0  0  0  0  0  0  0  0
   67.8000   58.2200   52.2700 H   0  0  0  0  0  0  0  0  0  0  0  0
   68.4100   57.2900   50.9200 H   0  0  0  0  0  0  0  0  0  0  0  0
   68.4600   59.4000   50.4600 C   0  0  0  0  0  0  0  0  0  0  0  0
   68.4300   60.3900   50.9100 H   0  0  0  0  0  0  0  0  0  0  0  0
   67.4700   59.4700   50.0700 H   0  0  0  0  0  0  0  0  0  0  0  0
   69.5000   59.4100   49.3200 C   0  0  0  0  0  0  0  0  0  0  0  0
   70.4800   59.4100   49.8200 H   0  0  0  0  0  0  0  0  0  0  0  0
   69.3700   60.3700   48.7600 H   0  0  0  0  0  0  0  0  0  0  0  0
   69.4200   58.2600   48.3100 C   0  0  0  0  0  0  0  0  0  0  0  0
   68.5400   58.5200   47.6900 H   0  0  0  0  0  0  0  0  0  0  0  0
   69.2500   57.3200   48.8900 H   0  0  0  0  0  0  0  0  0  0  0  0
   70.6400   58.0200   47.4100 C   0  0  0  0  0  0  0  0  0  0  0  0
   71.5100   57.9800   48.1000 H   0  0  0  0  0  0  0  0  0  0  0  0
   70.7400   58.9000   46.7400 H   0  0  0  0  0  0  0  0  0  0  0  0
   70.6600   56.7400   46.5500 C   0  0  0  0  0  0  0  0  0  0  0  0
   69.6300   56.4400   46.2900 H   0  0  0  0  0  0  0  0  0  0  0  0
   71.1100   55.8900   47.1100 H   0  0  0  0  0  0  0  0  0  0  0  0
   71.3500   56.9900   45.2000 C   0  0  0  0  0  0  0  0  0  0  0  0
   72.3700   57.4100   45.3700 H   0  0  0  0  0  0  0  0  0  0  0  0
   70.7600   57.7500   44.6500 H   0  0  0  0  0  0  0  0  0  0  0  0
   71.4700   55.7300   44.3200 C   0  0  0  0  0  0  0  0  0  0  0  0
   70.4800   55.2800   44.1100 H   0  0  0  0  0  0  0  0  0  0  0  0
   72.0600   54.9700   44.8800 H   0  0  0  0  0  0  0  0  0  0  0  0
   72.2600   56.0100   43.0300 C   0  0  0  0  0  0  0  0  0  0  0  0
   72.5400   55.0300   42.6100 H   0  0  0  0  0  0  0  0  0  0  0  0
   73.1800   56.5600   43.3400 H   0  0  0  0  0  0  0  0  0  0  0  0
   71.5400   56.8700   41.9700 C   0  0  0  0  0  0  0  0  0  0  0  0
   72.1200   57.8100   41.8700 H   0  0  0  0  0  0  0  0  0  0  0  0
   70.5300   57.1300   42.3700 H   0  0  0  0  0  0  0  0  0  0  0  0
   71.4600   56.2600   40.5600 C   0  0  0  0  0  0  0  0  0  0  0  0
   70.7100   55.4400   40.5100 H   0  0  0  0  0  0  0  0  0  0  0  0
   72.4500   55.9100   40.2000 H   0  0  0  0  0  0  0  0  0  0  0  0
   70.9700   57.2200   39.5200 C   0  0  0  0  0  0  0  0  0  0  0  0
   69.9600   57.4100   39.9100 H   0  0  0  0  0  0  0  0  0  0  0  0
   70.9100   56.8000   38.4700 H   0  0  0  0  0  0  0  0  0  0  0  0
   71.6900   58.5300   39.4300 C   0  0  0  0  0  0  0  0  0  0  0  0
   71.5600   59.1800   40.3100 H   0  0  0  0  0  0  0  0  0  0  0  0
   71.3600   59.2100   38.5600 H   0  0  0  0  0  0  0  0  0  0  0  0
   72.9900   58.1100   39.0700 C   0  0  0  0  0  0  0  0  0  0  0  0
   73.0400   57.4000   38.2100 H   0  0  0  0  0  0  0  0  0  0  0  0
   73.7200   57.8300   39.8600 H   0  0  0  0  0  0  0  0  0  0  0  0
   73.3400   59.3700   38.6600 C   0  0  0  0  0  0  0  0  0  0  0  0
   73.0600   60.0200   37.8400 H   0  0  0  0  0  0  0  0  0  0  0  0
   74.0900   58.8100   38.0600 H   0  0  0  0  0  0  0  0  0  0  0  0
   73.7800   59.9400   39.5100 H   0  0  0  0  0  0  0  0  0  0  0  0
  1  6  1  0  0  0  0
  1  2  1  0  0  0  0
  2  3  1  0  0  0  0
  2  4  1  0  0  0  0
  5  2  1  0  0  0  0
  6  8  1  0  0  0  0
  6  9  1  0  0  0  0
  7  6  1  0  0  0  0
 10  1  1  0  0  0  0
 10 12  1  0  0  0  0
 11 10  1  0  0  0  0
 13 10  1  0  0  0  0
 14 16  1  0  0  0  0
 14  1  1  0  0  0  0
 15 14  1  0  0  0  0
 17 14  1  0  0  0  0
 17 19  1  0  0  0  0
 18 17  1  0  0  0  0
 20 23  1  6  0  0  0
 20 24  1  0  0  0  0
 20 21  1  0  0  0  0
 22 20  2  0  0  0  0
 24 17  1  0  0  0  0
 25 27  1  0  0  0  0
 25 26  1  0  0  0  0
 25 23  1  0  0  0  0
 28 80  1  0  0  0  0
 28 30  1  0  0  0  0
 29 28  1  0  0  0  0
 30 31  1  6  0  0  0
 30 25  1  0  0  0  0
 32 33  1  1  0  0  0
 32 34  1  0  0  0  0
 32 30  1  0  0  0  0
 34 35  1  0  0  0  0
 36 32  1  0  0  0  0
 37 36  1  0  0  0  0
 38 39  1  0  0  0  0
 38 36  2  0  0  0  0
 40 38  1  0  0  0  0
 41 40  1  0  0  0  0
 42 40  1  0  0  0  0
 43 45  1  0  0  0  0
 43 44  1  0  0  0  0
 43 40  1  0  0  0  0
 46 43  1  0  0  0  0
 47 46  1  0  0  0  0
 48 46  1  0  0  0  0
 49 50  1  0  0  0  0
 49 51  1  0  0  0  0
 49 46  1  0  0  0  0
 52 49  1  0  0  0  0
 53 52  1  0  0  0  0
 54 52  1  0  0  0  0
 55 56  1  0  0  0  0
 55 57  1  0  0  0  0
 55 52  1  0  0  0  0
 58 59  1  0  0  0  0
 58 55  1  0  0  0  0
 60 58  1  0  0  0  0
 61 62  1  0  0  0  0
 61 63  1  0  0  0  0
 61 58  1  0  0  0  0
 64 61  1  0  0  0  0
 65 64  1  0  0  0  0
 66 64  1  0  0  0  0
 67 69  1  0  0  0  0
 67 68  1  0  0  0  0
 67 64  1  0  0  0  0
 70 67  1  0  0  0  0
 71 70  1  0  0  0  0
 72 70  1  0  0  0  0
 73 75  1  0  0  0  0
 73 74  1  0  0  0  0
 73 70  1  0  0  0  0
 76 73  1  0  0  0  0
 77 76  1  0  0  0  0
 78 76  1  0  0  0  0
 79 76  1  0  0  0  0
 80 81  2  0  0  0  0
 82 80  1  0  0  0  0
 82 83  1  0  0  0  0
 84 82  1  0  0  0  0
 85 86  1  0  0  0  0
 85 82  1  0  0  0  0
 87 85  1  0  0  0  0
 88 90  1  0  0  0  0
 88 85  1  0  0  0  0
 89 88  1  0  0  0  0
 91 92  1  0  0  0  0
 91 88  1  0  0  0  0
 93 91  1  0  0  0  0
 94 96  1  0  0  0  0
 94 91  1  0  0  0  0
 95 94  1  0  0  0  0
 97 98  1  0  0  0  0
 97 94  1  0  0  0  0
 99 97  1  0  0  0  0
100102  1  0  0  0  0
100 97  1  0  0  0  0
101100  1  0  0  0  0
103100  1  0  0  0  0
103104  1  0  0  0  0
105103  1  0  0  0  0
106107  1  0  0  0  0
106103  1  0  0  0  0
108106  1  0  0  0  0
109110  1  0  0  0  0
109106  1  0  0  0  0
111109  1  0  0  0  0
112114  1  0  0  0  0
112109  1  0  0  0  0
113112  1  0  0  0  0
115116  1  0  0  0  0
115112  1  0  0  0  0
117115  1  0  0  0  0
118120  1  0  0  0  0
118115  1  0  0  0  0
119118  1  0  0  0  0
121122  1  0  0  0  0
121118  1  0  0  0  0
123121  1  0  0  0  0
124126  1  0  0  0  0
124121  1  0  0  0  0
125124  1  0  0  0  0
127129  1  0  0  0  0
127124  1  0  0  0  0
128127  1  0  0  0  0
130132  1  0  0  0  0
130127  1  0  0  0  0
131130  1  0  0  0  0
133130  1  0  0  0  0
134133  1  0  0  0  0
135133  1  0  0  0  0
136137  1  0  0  0  0
136133  1  0  0  0  0
138136  1  0  0  0  0
139136  1  0  0  0  0
139140  1  0  0  0  0
141139  1  0  0  0  0
142139  1  0  0  0  0
142144  1  0  0  0  0
143142  1  0  0  0  0
145142  1  0  0  0  0
145148  1  0  0  0  0
146145  1  0  0  0  0
147145  1  0  0  0  0
M  END
