SLPA
 OpenBabel02161614153D

120119  0  0  1  0  0  0  0  0999 V2000
   23.3200   -0.7900   58.7000 P   0  0  1  0  0  0  0  0  0  0  0  0
   22.7000   -2.1300   58.7200 O   0  0  0  0  0  0  0  0  0  0  0  0
   22.5500    0.4600   58.8400 O   0  0  0  0  0  0  0  0  0  0  0  0
   24.1600   -0.8700   60.0300 O   0  0  0  0  0  0  0  0  0  0  0  0
   24.9000   -1.4800   59.8800 H   0  0  0  0  0  0  0  0  0  0  0  0
   24.3700   -0.6800   57.5300 O   0  0  0  0  0  0  0  0  0  0  0  0
   25.4100    0.2700   57.7100 C   0  0  0  0  0  0  0  0  0  0  0  0
   25.0600    1.1500   58.2700 H   0  0  0  0  0  0  0  0  0  0  0  0
   26.2400   -0.1900   58.3000 H   0  0  0  0  0  0  0  0  0  0  0  0
   26.0100    0.8500   56.4100 C   0  0  2  0  0  0  0  0  0  0  0  0
   25.2800    1.5500   55.9400 H   0  0  0  0  0  0  0  0  0  0  0  0
   26.4500   -0.1800   55.5200 O   0  0  0  0  0  0  0  0  0  0  0  0
   25.6700   -0.4500   54.5100 C   0  0  0  0  0  0  0  0  0  0  0  0
   24.6000    0.0700   54.2300 O   0  0  0  0  0  0  0  0  0  0  0  0
   26.3700   -1.4900   53.6400 C   0  0  0  0  0  0  0  0  0  0  0  0
   27.0600   -0.9600   52.9400 H   0  0  0  0  0  0  0  0  0  0  0  0
   26.9800   -2.1600   54.2800 H   0  0  0  0  0  0  0  0  0  0  0  0
   27.2300    1.6700   56.8600 C   0  0  0  0  0  0  0  0  0  0  0  0
   28.0600    1.0100   57.2300 H   0  0  0  0  0  0  0  0  0  0  0  0
   26.9300    2.3300   57.6800 H   0  0  0  0  0  0  0  0  0  0  0  0
   27.6300    2.5100   55.8000 O   0  0  0  0  0  0  0  0  0  0  0  0
   28.3800    1.9300   54.9200 C   0  0  0  0  0  0  0  0  0  0  0  0
   29.0200    0.9100   55.0200 O   0  0  0  0  0  0  0  0  0  0  0  0
   28.3500    2.7800   53.7100 C   0  0  0  0  0  0  0  0  0  0  0  0
   29.3000    2.5500   53.1900 H   0  0  0  0  0  0  0  0  0  0  0  0
   28.2800    3.8000   54.1600 H   0  0  0  0  0  0  0  0  0  0  0  0
   25.3300   -2.2900   52.8400 C   0  0  0  0  0  0  0  0  0  0  0  0
   24.7200   -1.5800   52.2300 H   0  0  0  0  0  0  0  0  0  0  0  0
   24.6400   -2.7900   53.5600 H   0  0  0  0  0  0  0  0  0  0  0  0
   25.9200   -3.3400   51.9200 C   0  0  0  0  0  0  0  0  0  0  0  0
   25.1700   -4.1600   51.7900 H   0  0  0  0  0  0  0  0  0  0  0  0
   26.8400   -3.7900   52.3500 H   0  0  0  0  0  0  0  0  0  0  0  0
   26.2100   -2.7600   50.5400 C   0  0  0  0  0  0  0  0  0  0  0  0
   27.1100   -2.1200   50.6300 H   0  0  0  0  0  0  0  0  0  0  0  0
   25.3700   -2.1200   50.1900 H   0  0  0  0  0  0  0  0  0  0  0  0
   26.3800   -3.8500   49.4800 C   0  0  0  0  0  0  0  0  0  0  0  0
   25.6500   -4.6700   49.6800 H   0  0  0  0  0  0  0  0  0  0  0  0
   27.4000   -4.2800   49.6400 H   0  0  0  0  0  0  0  0  0  0  0  0
   26.2300   -3.3900   48.0100 C   0  0  0  0  0  0  0  0  0  0  0  0
   25.2000   -3.5900   47.6600 H   0  0  0  0  0  0  0  0  0  0  0  0
   26.8900   -4.0800   47.4200 H   0  0  0  0  0  0  0  0  0  0  0  0
   26.6400   -1.9500   47.6500 C   0  0  0  0  0  0  0  0  0  0  0  0
   25.9600   -1.1300   47.9500 H   0  0  0  0  0  0  0  0  0  0  0  0
   26.7900   -1.9700   46.5300 H   0  0  0  0  0  0  0  0  0  0  0  0
   28.0000   -1.8500   48.2100 C   0  0  0  0  0  0  0  0  0  0  0  0
   28.3200   -2.8900   48.4700 H   0  0  0  0  0  0  0  0  0  0  0  0
   28.8200   -0.8600   48.4700 C   0  0  0  0  0  0  0  0  0  0  0  0
   29.8900   -1.1800   48.4700 H   0  0  0  0  0  0  0  0  0  0  0  0
   28.7300    0.5800   48.1400 C   0  0  0  0  0  0  0  0  0  0  0  0
   28.7700    1.0100   49.1700 H   0  0  0  0  0  0  0  0  0  0  0  0
   27.7200    0.8000   47.7100 H   0  0  0  0  0  0  0  0  0  0  0  0
   29.8700    1.2200   47.4000 C   0  0  0  0  0  0  0  0  0  0  0  0
   30.6600    1.6400   48.0400 H   0  0  0  0  0  0  0  0  0  0  0  0
   30.1000    1.2200   46.0800 C   0  0  0  0  0  0  0  0  0  0  0  0
   30.8900    1.8700   45.6700 H   0  0  0  0  0  0  0  0  0  0  0  0
   29.2400    0.5600   45.0400 C   0  0  0  0  0  0  0  0  0  0  0  0
   28.4700   -0.1000   45.5100 H   0  0  0  0  0  0  0  0  0  0  0  0
   29.8900   -0.0700   44.4100 H   0  0  0  0  0  0  0  0  0  0  0  0
   28.5300    1.5900   44.1500 C   0  0  0  0  0  0  0  0  0  0  0  0
   27.9600    1.0400   43.3700 H   0  0  0  0  0  0  0  0  0  0  0  0
   29.3000    2.2000   43.6400 H   0  0  0  0  0  0  0  0  0  0  0  0
   27.5600    2.4700   44.9600 C   0  0  0  0  0  0  0  0  0  0  0  0
   28.1600    3.1900   45.5500 H   0  0  0  0  0  0  0  0  0  0  0  0
   27.0100    1.8300   45.6900 H   0  0  0  0  0  0  0  0  0  0  0  0
   26.4900    3.2200   44.1500 C   0  0  0  0  0  0  0  0  0  0  0  0
   25.9900    3.9500   44.8400 H   0  0  0  0  0  0  0  0  0  0  0  0
   25.7300    2.5200   43.7500 H   0  0  0  0  0  0  0  0  0  0  0  0
   27.0500    3.9900   42.9900 C   0  0  0  0  0  0  0  0  0  0  0  0
   26.3300    4.5600   42.3800 H   0  0  0  0  0  0  0  0  0  0  0  0
   27.6700    3.3300   42.3300 H   0  0  0  0  0  0  0  0  0  0  0  0
   27.7000    4.7300   43.4800 H   0  0  0  0  0  0  0  0  0  0  0  0
   27.1600    2.7700   52.7400 C   0  0  0  0  0  0  0  0  0  0  0  0
   26.3200    3.3300   53.2100 H   0  0  0  0  0  0  0  0  0  0  0  0
   26.9100    1.7000   52.6400 H   0  0  0  0  0  0  0  0  0  0  0  0
   27.4200    3.3700   51.3400 C   0  0  0  0  0  0  0  0  0  0  0  0
   28.3000    2.8800   50.8800 H   0  0  0  0  0  0  0  0  0  0  0  0
   27.6100    4.4700   51.3800 H   0  0  0  0  0  0  0  0  0  0  0  0
   26.2700    3.1300   50.3600 C   0  0  0  0  0  0  0  0  0  0  0  0
   26.6300    3.3900   49.3400 H   0  0  0  0  0  0  0  0  0  0  0  0
   25.4200    3.8000   50.6100 H   0  0  0  0  0  0  0  0  0  0  0  0
   25.7700    1.6800   50.3700 C   0  0  0  0  0  0  0  0  0  0  0  0
   25.4600    1.3700   51.3900 H   0  0  0  0  0  0  0  0  0  0  0  0
   26.5800    0.9900   50.0400 H   0  0  0  0  0  0  0  0  0  0  0  0
   24.5100    1.4900   49.5200 C   0  0  0  0  0  0  0  0  0  0  0  0
   23.6700    2.0100   50.0500 H   0  0  0  0  0  0  0  0  0  0  0  0
   24.2800    0.4100   49.4900 H   0  0  0  0  0  0  0  0  0  0  0  0
   24.6200    2.1000   48.1200 C   0  0  0  0  0  0  0  0  0  0  0  0
   25.5300    1.7100   47.6100 H   0  0  0  0  0  0  0  0  0  0  0  0
   24.7300    3.2000   48.2000 H   0  0  0  0  0  0  0  0  0  0  0  0
   23.3900    1.8100   47.2500 C   0  0  0  0  0  0  0  0  0  0  0  0
   23.5400    2.2800   46.2600 H   0  0  0  0  0  0  0  0  0  0  0  0
   22.5000    2.2800   47.7100 H   0  0  0  0  0  0  0  0  0  0  0  0
   23.1600    0.3000   47.0800 C   0  0  0  0  0  0  0  0  0  0  0  0
   22.3400   -0.0100   47.7800 H   0  0  0  0  0  0  0  0  0  0  0  0
   24.0600   -0.2700   47.3600 H   0  0  0  0  0  0  0  0  0  0  0  0
   22.7900   -0.0900   45.6600 C   0  0  0  0  0  0  0  0  0  0  0  0
   22.1300    0.7100   45.2700 H   0  0  0  0  0  0  0  0  0  0  0  0
   22.2300   -1.0500   45.6600 H   0  0  0  0  0  0  0  0  0  0  0  0
   23.9500   -0.1800   44.6700 C   0  0  0  0  0  0  0  0  0  0  0  0
   24.7700   -0.7800   45.1100 H   0  0  0  0  0  0  0  0  0  0  0  0
   24.3300    0.8500   44.4700 H   0  0  0  0  0  0  0  0  0  0  0  0
   23.5300   -0.8300   43.3600 C   0  0  0  0  0  0  0  0  0  0  0  0
   22.7700   -0.1800   42.8800 H   0  0  0  0  0  0  0  0  0  0  0  0
   23.0500   -1.8100   43.5100 H   0  0  0  0  0  0  0  0  0  0  0  0
   24.6800   -0.8900   42.3700 C   0  0  0  0  0  0  0  0  0  0  0  0
   25.4700   -1.5800   42.6300 H   0  0  0  0  0  0  0  0  0  0  0  0
   25.2200    0.0600   42.4900 H   0  0  0  0  0  0  0  0  0  0  0  0
   24.2000   -1.1000   40.9400 C   0  0  0  0  0  0  0  0  0  0  0  0
   23.5000   -1.9600   40.8300 H   0  0  0  0  0  0  0  0  0  0  0  0
   25.0800   -1.3500   40.2900 H   0  0  0  0  0  0  0  0  0  0  0  0
   23.5100    0.1700   40.4300 C   0  0  0  0  0  0  0  0  0  0  0  0
   22.5700    0.4100   40.9500 H   0  0  0  0  0  0  0  0  0  0  0  0
   23.2500   -0.0900   39.3900 H   0  0  0  0  0  0  0  0  0  0  0  0
   24.3800    1.4100   40.6400 C   0  0  0  0  0  0  0  0  0  0  0  0
   24.4100    1.7500   41.6900 H   0  0  0  0  0  0  0  0  0  0  0  0
   24.0200    2.3000   40.0700 H   0  0  0  0  0  0  0  0  0  0  0  0
   25.7800    1.1400   40.2200 C   0  0  0  0  0  0  0  0  0  0  0  0
   26.2800    2.1100   40.2300 H   0  0  0  0  0  0  0  0  0  0  0  0
   25.8100    0.6800   39.2000 H   0  0  0  0  0  0  0  0  0  0  0  0
   26.3800    0.4800   40.8800 H   0  0  0  0  0  0  0  0  0  0  0  0
  1  6  1  6  0  0  0
  1  2  2  0  0  0  0
  1  3  1  0  0  0  0
  1  4  1  0  0  0  0
  5  4  1  0  0  0  0
  6  7  1  0  0  0  0
  7  8  1  0  0  0  0
  7  9  1  0  0  0  0
 10 11  1  6  0  0  0
 10 18  1  0  0  0  0
 10  7  1  0  0  0  0
 12 10  1  0  0  0  0
 13 12  1  0  0  0  0
 14 13  2  0  0  0  0
 15 17  1  0  0  0  0
 15 13  1  0  0  0  0
 16 15  1  0  0  0  0
 18 19  1  0  0  0  0
 18 20  1  0  0  0  0
 21 18  1  0  0  0  0
 22 23  2  0  0  0  0
 22 21  1  0  0  0  0
 24 26  1  0  0  0  0
 24 22  1  0  0  0  0
 25 24  1  0  0  0  0
 27 29  1  0  0  0  0
 27 15  1  0  0  0  0
 28 27  1  0  0  0  0
 30 32  1  0  0  0  0
 30 27  1  0  0  0  0
 31 30  1  0  0  0  0
 33 34  1  0  0  0  0
 33 30  1  0  0  0  0
 35 33  1  0  0  0  0
 36 38  1  0  0  0  0
 36 37  1  0  0  0  0
 36 33  1  0  0  0  0
 39 36  1  0  0  0  0
 40 39  1  0  0  0  0
 41 39  1  0  0  0  0
 42 43  1  0  0  0  0
 42 39  1  0  0  0  0
 42 45  1  0  0  0  0
 44 42  1  0  0  0  0
 45 47  1  0  0  0  0
 45 46  1  0  0  0  0
 47 48  1  0  0  0  0
 49 47  1  0  0  0  0
 49 50  1  0  0  0  0
 51 49  1  0  0  0  0
 52 53  1  0  0  0  0
 52 49  1  0  0  0  0
 54 52  1  0  0  0  0
 55 54  1  0  0  0  0
 56 57  1  0  0  0  0
 56 54  1  0  0  0  0
 58 56  1  0  0  0  0
 59 62  1  0  0  0  0
 59 56  1  0  0  0  0
 60 59  1  0  0  0  0
 61 59  1  0  0  0  0
 62 63  1  0  0  0  0
 62 64  1  0  0  0  0
 65 66  1  0  0  0  0
 65 62  1  0  0  0  0
 67 65  1  0  0  0  0
 68 71  1  0  0  0  0
 68 65  1  0  0  0  0
 69 68  1  0  0  0  0
 70 68  1  0  0  0  0
 72 73  1  0  0  0  0
 72 24  1  0  0  0  0
 74 72  1  0  0  0  0
 75 77  1  0  0  0  0
 75 72  1  0  0  0  0
 76 75  1  0  0  0  0
 78 81  1  0  0  0  0
 78 80  1  0  0  0  0
 78 75  1  0  0  0  0
 79 78  1  0  0  0  0
 81 82  1  0  0  0  0
 83 81  1  0  0  0  0
 84 85  1  0  0  0  0
 84 81  1  0  0  0  0
 86 84  1  0  0  0  0
 87 89  1  0  0  0  0
 87 84  1  0  0  0  0
 88 87  1  0  0  0  0
 90 92  1  0  0  0  0
 90 87  1  0  0  0  0
 91 90  1  0  0  0  0
 93 90  1  0  0  0  0
 93 95  1  0  0  0  0
 93 94  1  0  0  0  0
 96 98  1  0  0  0  0
 96 93  1  0  0  0  0
 97 96  1  0  0  0  0
 99100  1  0  0  0  0
 99 96  1  0  0  0  0
101 99  1  0  0  0  0
102104  1  0  0  0  0
102 99  1  0  0  0  0
103102  1  0  0  0  0
105107  1  0  0  0  0
105106  1  0  0  0  0
105102  1  0  0  0  0
108105  1  0  0  0  0
109108  1  0  0  0  0
110108  1  0  0  0  0
111114  1  0  0  0  0
111108  1  0  0  0  0
111112  1  0  0  0  0
113111  1  0  0  0  0
114115  1  0  0  0  0
116114  1  0  0  0  0
117118  1  0  0  0  0
117114  1  0  0  0  0
117120  1  0  0  0  0
119117  1  0  0  0  0
M  END
