PNPI
 OpenBabel02161614153D

133132  0  0  1  0  0  0  0  0999 V2000
   35.9800   21.0200   61.7900 C   0  0  2  0  0  0  0  0  0  0  0  0
   35.0800   21.6000   61.5000 H   0  0  0  0  0  0  0  0  0  0  0  0
   37.0700   21.6100   61.1600 O   0  0  0  0  0  0  0  0  0  0  0  0
   36.7800   22.3700   60.6300 H   0  0  0  0  0  0  0  0  0  0  0  0
   36.1700   21.0900   63.2700 C   0  0  2  0  0  0  0  0  0  0  0  0
   35.2600   20.6700   63.6400 H   0  0  0  0  0  0  0  0  0  0  0  0
   36.0600   22.3900   63.8000 O   0  0  0  0  0  0  0  0  0  0  0  0
   36.1200   22.4300   64.7600 H   0  0  0  0  0  0  0  0  0  0  0  0
   37.3700   20.2800   63.7100 C   0  0  1  0  0  0  0  0  0  0  0  0
   38.2800   20.6400   63.1600 H   0  0  0  0  0  0  0  0  0  0  0  0
   37.5900   20.4600   65.1200 O   0  0  0  0  0  0  0  0  0  0  0  0
   36.9800   20.0200   65.7100 H   0  0  0  0  0  0  0  0  0  0  0  0
   37.1800   18.8400   63.3000 C   0  0  2  0  0  0  0  0  0  0  0  0
   36.3800   18.3200   63.8200 H   0  0  0  0  0  0  0  0  0  0  0  0
   38.3500   18.2100   63.7600 O   0  0  0  0  0  0  0  0  0  0  0  0
   38.1100   17.4600   64.3200 H   0  0  0  0  0  0  0  0  0  0  0  0
   36.9500   18.7600   61.7800 C   0  0  1  0  0  0  0  0  0  0  0  0
   37.8900   19.0400   61.2500 H   0  0  0  0  0  0  0  0  0  0  0  0
   36.5100   17.4900   61.3400 O   0  0  0  0  0  0  0  0  0  0  0  0
   36.9500   17.3600   60.4900 H   0  0  0  0  0  0  0  0  0  0  0  0
   35.7700   19.6000   61.3900 C   0  0  2  0  0  0  0  0  0  0  0  0
   34.9000   19.2400   61.9700 H   0  0  0  0  0  0  0  0  0  0  0  0
   34.0800   18.9300   59.4300 P   0  0  2  0  0  0  0  0  0  0  0  0
   33.0100   19.7200   60.0700 O   0  0  0  0  0  0  0  0  0  0  0  0
   33.9400   17.5200   59.8400 O   0  0  0  0  0  0  0  0  0  0  0  0
   35.4800   19.5500   59.9900 O   0  0  0  0  0  0  0  0  0  0  0  0
   34.2700   19.1200   57.8800 O   0  0  0  0  0  0  0  0  0  0  0  0
   34.3000   20.4600   57.3900 C   0  0  0  0  0  0  0  0  0  0  0  0
   34.9700   20.5200   56.5000 H   0  0  0  0  0  0  0  0  0  0  0  0
   34.7000   21.2000   58.1400 H   0  0  0  0  0  0  0  0  0  0  0  0
   32.9100   20.9200   56.9600 C   0  0  2  0  0  0  0  0  0  0  0  0
   32.2000   20.8000   57.8100 H   0  0  0  0  0  0  0  0  0  0  0  0
   32.5600   20.0600   55.8500 O   0  0  0  0  0  0  0  0  0  0  0  0
   31.3900   20.1800   55.3200 C   0  0  0  0  0  0  0  0  0  0  0  0
   30.4600   20.8500   55.7400 O   0  0  0  0  0  0  0  0  0  0  0  0
   31.3900   19.3800   54.0000 C   0  0  0  0  0  0  0  0  0  0  0  0
   30.8800   18.4500   54.1100 H   0  0  0  0  0  0  0  0  0  0  0  0
   32.3900   18.9900   53.7800 H   0  0  0  0  0  0  0  0  0  0  0  0
   32.9400   22.4400   56.5900 C   0  0  0  0  0  0  0  0  0  0  0  0
   31.9100   22.8600   56.6600 H   0  0  0  0  0  0  0  0  0  0  0  0
   33.5900   23.0000   57.3100 H   0  0  0  0  0  0  0  0  0  0  0  0
   33.5200   22.6100   55.3000 O   0  0  0  0  0  0  0  0  0  0  0  0
   33.2300   23.7800   54.7800 C   0  0  0  0  0  0  0  0  0  0  0  0
   32.5000   24.6200   55.2500 O   0  0  0  0  0  0  0  0  0  0  0  0
   34.0000   23.9200   53.5100 C   0  0  0  0  0  0  0  0  0  0  0  0
   34.4700   22.9200   53.3200 H   0  0  0  0  0  0  0  0  0  0  0  0
   34.8100   24.6600   53.6900 H   0  0  0  0  0  0  0  0  0  0  0  0
   30.7500   20.1300   52.8300 C   0  0  0  0  0  0  0  0  0  0  0  0
   31.3500   21.0600   52.6700 H   0  0  0  0  0  0  0  0  0  0  0  0
   29.7100   20.4300   53.0900 H   0  0  0  0  0  0  0  0  0  0  0  0
   30.7400   19.3100   51.5300 C   0  0  0  0  0  0  0  0  0  0  0  0
   29.9100   19.7400   50.9100 H   0  0  0  0  0  0  0  0  0  0  0  0
   30.5100   18.2400   51.7100 H   0  0  0  0  0  0  0  0  0  0  0  0
   32.0700   19.4000   50.7600 C   0  0  0  0  0  0  0  0  0  0  0  0
   32.9400   19.2500   51.4300 H   0  0  0  0  0  0  0  0  0  0  0  0
   32.1000   20.4500   50.4000 H   0  0  0  0  0  0  0  0  0  0  0  0
   32.2700   18.4000   49.6100 C   0  0  0  0  0  0  0  0  0  0  0  0
   32.2900   17.3600   50.0000 H   0  0  0  0  0  0  0  0  0  0  0  0
   33.2600   18.5900   49.1400 H   0  0  0  0  0  0  0  0  0  0  0  0
   31.1700   18.4200   48.5600 C   0  0  0  0  0  0  0  0  0  0  0  0
   30.9300   19.4700   48.2700 H   0  0  0  0  0  0  0  0  0  0  0  0
   30.2700   17.9700   49.0400 H   0  0  0  0  0  0  0  0  0  0  0  0
   31.5200   17.5800   47.3200 C   0  0  0  0  0  0  0  0  0  0  0  0
   30.6100   17.5500   46.6700 H   0  0  0  0  0  0  0  0  0  0  0  0
   31.7300   16.5300   47.5800 H   0  0  0  0  0  0  0  0  0  0  0  0
   32.7500   18.0400   46.6000 C   0  0  0  0  0  0  0  0  0  0  0  0
   33.7200   17.6800   46.9100 H   0  0  0  0  0  0  0  0  0  0  0  0
   32.7900   19.0900   45.8500 C   0  0  0  0  0  0  0  0  0  0  0  0
   33.6400   19.3300   45.1800 H   0  0  0  0  0  0  0  0  0  0  0  0
   31.6400   19.9400   45.6300 C   0  0  0  0  0  0  0  0  0  0  0  0
   32.3200   20.7100   45.4000 H   0  0  0  0  0  0  0  0  0  0  0  0
   30.7900   20.2000   46.2600 H   0  0  0  0  0  0  0  0  0  0  0  0
   30.9600   19.3500   44.5900 C   0  0  0  0  0  0  0  0  0  0  0  0
   30.6800   18.3100   44.7500 H   0  0  0  0  0  0  0  0  0  0  0  0
   30.8600   19.9700   43.4900 C   0  0  0  0  0  0  0  0  0  0  0  0
   30.4000   19.6500   42.5100 H   0  0  0  0  0  0  0  0  0  0  0  0
   31.4600   21.1800   43.5100 C   0  0  0  0  0  0  0  0  0  0  0  0
   30.6800   22.0500   43.5400 H   0  0  0  0  0  0  0  0  0  0  0  0
   30.3700   21.2800   43.0500 H   0  0  0  0  0  0  0  0  0  0  0  0
   33.1100   21.2300   42.7700 C   0  0  0  0  0  0  0  0  0  0  0  0
   33.8000   22.1000   43.0200 H   0  0  0  0  0  0  0  0  0  0  0  0
   33.6500   20.9000   41.4400 C   0  0  0  0  0  0  0  0  0  0  0  0
   34.4800   21.6600   41.1400 H   0  0  0  0  0  0  0  0  0  0  0  0
   33.0100   20.2700   39.9800 C   0  0  0  0  0  0  0  0  0  0  0  0
   32.3000   19.4700   40.2400 H   0  0  0  0  0  0  0  0  0  0  0  0
   33.4400   19.3800   39.4600 H   0  0  0  0  0  0  0  0  0  0  0  0
   32.3500   20.8100   38.6200 C   0  0  0  0  0  0  0  0  0  0  0  0
   32.2800   20.0000   37.8400 H   0  0  0  0  0  0  0  0  0  0  0  0
   31.2800   21.0500   38.6800 H   0  0  0  0  0  0  0  0  0  0  0  0
   32.8800   21.6900   38.2200 H   0  0  0  0  0  0  0  0  0  0  0  0
   32.9700   24.4200   52.4400 C   0  0  0  0  0  0  0  0  0  0  0  0
   32.3300   25.2100   52.8700 H   0  0  0  0  0  0  0  0  0  0  0  0
   32.4400   23.5000   52.1000 H   0  0  0  0  0  0  0  0  0  0  0  0
   33.4400   25.1000   51.1200 C   0  0  0  0  0  0  0  0  0  0  0  0
   34.1100   26.0200   51.1900 H   0  0  0  0  0  0  0  0  0  0  0  0
   32.7800   25.1500   50.2500 H   0  0  0  0  0  0  0  0  0  0  0  0
   34.1500   24.0500   50.4100 C   0  0  0  0  0  0  0  0  0  0  0  0
   34.0700   22.9700   50.6700 H   0  0  0  0  0  0  0  0  0  0  0  0
   34.6400   24.2800   51.3300 H   0  0  0  0  0  0  0  0  0  0  0  0
   34.9200   24.5100   49.1600 C   0  0  0  0  0  0  0  0  0  0  0  0
   35.7700   23.9100   49.0200 H   0  0  0  0  0  0  0  0  0  0  0  0
   35.6200   25.3800   49.1100 H   0  0  0  0  0  0  0  0  0  0  0  0
   34.5800   23.7100   48.0200 C   0  0  0  0  0  0  0  0  0  0  0  0
   35.1000   24.0200   47.0900 H   0  0  0  0  0  0  0  0  0  0  0  0
   33.6200   24.2700   48.0600 H   0  0  0  0  0  0  0  0  0  0  0  0
   34.3100   22.1400   48.1800 C   0  0  0  0  0  0  0  0  0  0  0  0
   33.6100   21.8200   47.3900 H   0  0  0  0  0  0  0  0  0  0  0  0
   33.7300   21.9500   49.1000 H   0  0  0  0  0  0  0  0  0  0  0  0
   35.3900   21.0300   47.9700 C   0  0  0  0  0  0  0  0  0  0  0  0
   35.0000   20.0200   48.1700 H   0  0  0  0  0  0  0  0  0  0  0  0
   36.1100   21.0200   48.7800 H   0  0  0  0  0  0  0  0  0  0  0  0
   36.0400   21.0500   46.5600 C   0  0  0  0  0  0  0  0  0  0  0  0
   36.0100   22.1400   46.3800 H   0  0  0  0  0  0  0  0  0  0  0  0
   35.3300   20.7200   45.8000 H   0  0  0  0  0  0  0  0  0  0  0  0
   37.4100   20.2900   46.3000 C   0  0  0  0  0  0  0  0  0  0  0  0
   37.2800   19.2100   46.2500 H   0  0  0  0  0  0  0  0  0  0  0  0
   37.8700   20.0600   47.2900 H   0  0  0  0  0  0  0  0  0  0  0  0
   38.4800   20.9800   45.2500 C   0  0  0  0  0  0  0  0  0  0  0  0
   39.5600   20.8700   45.4400 H   0  0  0  0  0  0  0  0  0  0  0  0
   38.9000   21.9800   45.1500 H   0  0  0  0  0  0  0  0  0  0  0  0
   37.9000   21.2800   43.9100 C   0  0  0  0  0  0  0  0  0  0  0  0
   38.5700   21.9100   43.2500 H   0  0  0  0  0  0  0  0  0  0  0  0
   36.8500   21.6000   43.9300 H   0  0  0  0  0  0  0  0  0  0  0  0
   38.0900   19.9200   43.6000 C   0  0  0  0  0  0  0  0  0  0  0  0
   37.7900   19.1600   44.3700 H   0  0  0  0  0  0  0  0  0  0  0  0
   39.2100   20.0800   43.5000 H   0  0  0  0  0  0  0  0  0  0  0  0
   37.5600   19.4700   42.3800 C   0  0  0  0  0  0  0  0  0  0  0  0
   36.5400   19.8700   42.3800 H   0  0  0  0  0  0  0  0  0  0  0  0
   37.5500   18.3500   42.3800 H   0  0  0  0  0  0  0  0  0  0  0  0
   38.3900   19.9100   41.2300 C   0  0  0  0  0  0  0  0  0  0  0  0
   39.2300   19.2300   41.1400 H   0  0  0  0  0  0  0  0  0  0  0  0
   37.8300   19.6600   40.3800 H   0  0  0  0  0  0  0  0  0  0  0  0
   38.6300   20.9900   41.1800 H   0  0  0  0  0  0  0  0  0  0  0  0
  1  2  1  6  0  0  0
  1  5  1  0  0  0  0
  3  1  1  0  0  0  0
  4  3  1  0  0  0  0
  5  6  1  1  0  0  0
  5  9  1  0  0  0  0
  5  7  1  0  0  0  0
  7  8  1  0  0  0  0
  9 10  1  6  0  0  0
  9 11  1  0  0  0  0
 11 12  1  0  0  0  0
 13  9  1  0  0  0  0
 13 15  1  0  0  0  0
 13 14  1  1  0  0  0
 15 16  1  0  0  0  0
 17 18  1  6  0  0  0
 17 13  1  0  0  0  0
 19 17  1  0  0  0  0
 20 19  1  0  0  0  0
 21 17  1  0  0  0  0
 21  1  1  0  0  0  0
 21 22  1  1  0  0  0
 23 27  1  6  0  0  0
 23 25  2  0  0  0  0
 23 26  1  0  0  0  0
 23 24  1  0  0  0  0
 26 21  1  0  0  0  0
 28 27  1  0  0  0  0
 28 30  1  0  0  0  0
 29 28  1  0  0  0  0
 31 28  1  0  0  0  0
 31 32  1  1  0  0  0
 33 31  1  0  0  0  0
 34 35  2  0  0  0  0
 34 33  1  0  0  0  0
 36 37  1  0  0  0  0
 36 34  1  0  0  0  0
 38 36  1  0  0  0  0
 39 40  1  0  0  0  0
 39 31  1  0  0  0  0
 39 41  1  0  0  0  0
 42 39  1  0  0  0  0
 43 44  2  0  0  0  0
 43 42  1  0  0  0  0
 45 47  1  0  0  0  0
 45 43  1  0  0  0  0
 46 45  1  0  0  0  0
 48 50  1  0  0  0  0
 48 36  1  0  0  0  0
 49 48  1  0  0  0  0
 51 53  1  0  0  0  0
 51 48  1  0  0  0  0
 52 51  1  0  0  0  0
 54 55  1  0  0  0  0
 54 51  1  0  0  0  0
 56 54  1  0  0  0  0
 57 58  1  0  0  0  0
 57 54  1  0  0  0  0
 59 57  1  0  0  0  0
 60 62  1  0  0  0  0
 60 57  1  0  0  0  0
 61 60  1  0  0  0  0
 63 65  1  0  0  0  0
 63 60  1  0  0  0  0
 64 63  1  0  0  0  0
 66 67  1  0  0  0  0
 66 63  1  0  0  0  0
 68 66  1  0  0  0  0
 69 68  1  0  0  0  0
 70 68  1  0  0  0  0
 70 72  1  0  0  0  0
 71 70  1  0  0  0  0
 73 74  1  0  0  0  0
 73 70  1  0  0  0  0
 75 77  1  0  0  0  0
 75 73  2  0  0  0  0
 76 75  1  0  0  0  0
 77 78  1  0  0  0  0
 79 77  1  0  0  0  0
 80 81  1  0  0  0  0
 80 77  1  0  0  0  0
 82 80  1  0  0  0  0
 83 82  1  0  0  0  0
 84 85  1  0  0  0  0
 84 82  1  0  0  0  0
 86 84  1  0  0  0  0
 87 89  1  0  0  0  0
 87 84  1  0  0  0  0
 88 87  1  0  0  0  0
 90 87  1  0  0  0  0
 91 92  1  0  0  0  0
 91 45  1  0  0  0  0
 93 91  1  0  0  0  0
 94 95  1  0  0  0  0
 96 94  1  0  0  0  0
 97 98  1  0  0  0  0
 97 94  1  0  0  0  0
 97 99  1  0  0  0  0
100 97  1  0  0  0  0
101100  1  0  0  0  0
102100  1  0  0  0  0
103105  1  0  0  0  0
103106  1  0  0  0  0
103100  1  0  0  0  0
104103  1  0  0  0  0
106108  1  0  0  0  0
107106  1  0  0  0  0
109110  1  0  0  0  0
109106  1  0  0  0  0
109111  1  0  0  0  0
112109  1  0  0  0  0
113112  1  0  0  0  0
114112  1  0  0  0  0
115112  1  0  0  0  0
115117  1  0  0  0  0
116115  1  0  0  0  0
118119  1  0  0  0  0
118115  1  0  0  0  0
120118  1  0  0  0  0
121123  1  0  0  0  0
121118  1  0  0  0  0
122121  1  0  0  0  0
124121  1  0  0  0  0
124125  1  0  0  0  0
126124  1  0  0  0  0
127124  1  0  0  0  0
128127  1  0  0  0  0
129127  1  0  0  0  0
130127  1  0  0  0  0
131130  1  0  0  0  0
132130  1  0  0  0  0
133130  1  0  0  0  0
M  END
