PLPI15
 OpenBabel02161614153D

138138  0  0  1  0  0  0  0  0999 V2000
   42.3900   33.4600   61.8200 C   0  0  2  0  0  0  0  0  0  0  0  0
   43.0500   33.6200   60.9400 H   0  0  0  0  0  0  0  0  0  0  0  0
   42.3000   32.0400   62.0200 O   0  0  0  0  0  0  0  0  0  0  0  0
   42.0000   31.9100   62.9100 H   0  0  0  0  0  0  0  0  0  0  0  0
   43.0000   34.1900   63.0100 C   0  0  2  0  0  0  0  0  0  0  0  0
   43.0900   35.2800   62.7700 H   0  0  0  0  0  0  0  0  0  0  0  0
   44.3000   33.6700   63.3000 O   0  0  0  0  0  0  0  0  0  0  0  0
   44.8400   33.8700   62.5300 H   0  0  0  0  0  0  0  0  0  0  0  0
   42.0300   34.1000   64.1900 C   0  0  1  0  0  0  0  0  0  0  0  0
   41.8700   33.0300   64.4000 H   0  0  0  0  0  0  0  0  0  0  0  0
   42.5400   34.7000   65.3500 O   0  0  0  0  0  0  0  0  0  0  0  0
   42.7900   34.1000   66.0500 H   0  0  0  0  0  0  0  0  0  0  0  0
   40.6900   34.7300   63.8600 C   0  0  2  0  0  0  0  0  0  0  0  0
   40.8300   35.8100   63.6400 H   0  0  0  0  0  0  0  0  0  0  0  0
   39.8000   34.4700   64.9500 O   0  0  0  0  0  0  0  0  0  0  0  0
   38.9900   35.6600   65.7500 P   0  0  0  0  0  0  0  0  0  0  0  0
   37.8500   34.8100   66.3000 O   0  0  0  0  0  0  0  0  0  0  0  0
   39.8600   36.2100   66.8700 O   0  0  0  0  0  0  0  0  0  0  0  0
   38.6000   36.6400   64.6400 O   0  0  0  0  0  0  0  0  0  0  0  0
   40.1000   34.0200   62.6600 C   0  0  1  0  0  0  0  0  0  0  0  0
   39.9200   32.9600   62.9400 H   0  0  0  0  0  0  0  0  0  0  0  0
   38.8600   34.6100   62.2800 O   0  0  0  0  0  0  0  0  0  0  0  0
   38.1700   34.4100   62.9200 H   0  0  0  0  0  0  0  0  0  0  0  0
   41.0400   34.0700   61.4800 C   0  0  2  0  0  0  0  0  0  0  0  0
   41.2700   35.1600   61.3200 H   0  0  0  0  0  0  0  0  0  0  0  0
   40.0800   34.4100   59.0200 P   0  0  2  0  0  0  0  0  0  0  0  0
   41.3400   35.0500   58.5800 O   0  0  0  0  0  0  0  0  0  0  0  0
   38.9800   35.3200   59.3900 O   0  0  0  0  0  0  0  0  0  0  0  0
   40.5100   33.4300   60.3000 O   0  0  0  0  0  0  0  0  0  0  0  0
   39.5200   33.4000   57.9400 O   0  0  0  0  0  0  0  0  0  0  0  0
   39.7400   32.0000   57.9800 C   0  0  0  0  0  0  0  0  0  0  0  0
   39.0200   31.5500   57.2700 H   0  0  0  0  0  0  0  0  0  0  0  0
   39.5100   31.5600   58.9800 H   0  0  0  0  0  0  0  0  0  0  0  0
   41.1600   31.6000   57.4800 C   0  0  2  0  0  0  0  0  0  0  0  0
   41.8600   31.8100   58.3300 H   0  0  0  0  0  0  0  0  0  0  0  0
   41.4800   32.4200   56.3500 O   0  0  0  0  0  0  0  0  0  0  0  0
   42.7400   32.6500   56.1200 C   0  0  0  0  0  0  0  0  0  0  0  0
   43.6800   32.4100   56.8600 O   0  0  0  0  0  0  0  0  0  0  0  0
   42.8300   33.1900   54.7200 C   0  0  0  0  0  0  0  0  0  0  0  0
   42.1300   32.5900   54.1000 H   0  0  0  0  0  0  0  0  0  0  0  0
   43.8500   33.0800   54.2800 H   0  0  0  0  0  0  0  0  0  0  0  0
   41.2300   30.1100   57.0200 C   0  0  0  0  0  0  0  0  0  0  0  0
   42.2700   29.8500   56.7400 H   0  0  0  0  0  0  0  0  0  0  0  0
   40.9900   29.4700   57.9000 H   0  0  0  0  0  0  0  0  0  0  0  0
   40.2700   29.8500   55.9600 O   0  0  0  0  0  0  0  0  0  0  0  0
   40.7600   29.8300   54.7200 C   0  0  0  0  0  0  0  0  0  0  0  0
   41.9300   29.9600   54.4200 O   0  0  0  0  0  0  0  0  0  0  0  0
   39.6100   29.6400   53.7000 C   0  0  0  0  0  0  0  0  0  0  0  0
   39.1800   30.6400   53.5200 H   0  0  0  0  0  0  0  0  0  0  0  0
   38.8200   28.9900   54.1300 H   0  0  0  0  0  0  0  0  0  0  0  0
   42.4300   34.6600   54.7500 C   0  0  0  0  0  0  0  0  0  0  0  0
   43.1400   35.2300   55.4100 H   0  0  0  0  0  0  0  0  0  0  0  0
   41.4000   34.8000   55.1500 H   0  0  0  0  0  0  0  0  0  0  0  0
   42.4700   35.2500   53.3700 C   0  0  0  0  0  0  0  0  0  0  0  0
   43.5100   35.0500   53.0300 H   0  0  0  0  0  0  0  0  0  0  0  0
   42.2700   36.3300   53.5400 H   0  0  0  0  0  0  0  0  0  0  0  0
   41.5000   34.6400   52.3400 C   0  0  0  0  0  0  0  0  0  0  0  0
   40.4700   34.8600   52.6600 H   0  0  0  0  0  0  0  0  0  0  0  0
   41.7700   33.5700   52.2900 H   0  0  0  0  0  0  0  0  0  0  0  0
   41.5600   35.1000   50.8900 C   0  0  0  0  0  0  0  0  0  0  0  0
   42.6200   34.9600   50.5800 H   0  0  0  0  0  0  0  0  0  0  0  0
   41.1100   36.1200   50.8500 H   0  0  0  0  0  0  0  0  0  0  0  0
   40.6400   34.5700   49.8200 C   0  0  0  0  0  0  0  0  0  0  0  0
   39.6300   34.7000   50.2800 H   0  0  0  0  0  0  0  0  0  0  0  0
   41.0100   33.5300   49.7600 H   0  0  0  0  0  0  0  0  0  0  0  0
   40.6600   35.2500   48.4200 C   0  0  0  0  0  0  0  0  0  0  0  0
   40.4100   36.3500   48.4400 H   0  0  0  0  0  0  0  0  0  0  0  0
   39.8200   34.8000   47.8700 H   0  0  0  0  0  0  0  0  0  0  0  0
   41.9700   35.0000   47.7100 C   0  0  0  0  0  0  0  0  0  0  0  0
   42.8600   34.9800   48.3300 H   0  0  0  0  0  0  0  0  0  0  0  0
   42.1700   34.8500   46.4200 C   0  0  0  0  0  0  0  0  0  0  0  0
   43.2000   34.7700   46.0200 H   0  0  0  0  0  0  0  0  0  0  0  0
   41.0500   34.9300   45.4400 C   0  0  0  0  0  0  0  0  0  0  0  0
   40.0600   34.6700   45.8200 H   0  0  0  0  0  0  0  0  0  0  0  0
   41.2100   34.2100   44.6200 H   0  0  0  0  0  0  0  0  0  0  0  0
   40.9000   36.3200   44.9800 C   0  0  0  0  0  0  0  0  0  0  0  0
   40.6700   37.1900   45.6500 H   0  0  0  0  0  0  0  0  0  0  0  0
   41.4400   36.5100   43.8100 C   0  0  0  0  0  0  0  0  0  0  0  0
   41.2900   37.5700   43.5400 H   0  0  0  0  0  0  0  0  0  0  0  0
   42.2100   35.4500   42.9100 C   0  0  0  0  0  0  0  0  0  0  0  0
   42.7700   34.6900   43.4900 H   0  0  0  0  0  0  0  0  0  0  0  0
   43.1800   35.6100   42.3600 H   0  0  0  0  0  0  0  0  0  0  0  0
   41.5000   35.3000   41.5800 C   0  0  0  0  0  0  0  0  0  0  0  0
   41.1500   36.2800   41.1700 H   0  0  0  0  0  0  0  0  0  0  0  0
   40.6300   34.7200   41.8700 H   0  0  0  0  0  0  0  0  0  0  0  0
   42.3200   34.6600   40.4500 C   0  0  0  0  0  0  0  0  0  0  0  0
   41.5500   34.2700   39.7500 H   0  0  0  0  0  0  0  0  0  0  0  0
   42.9400   33.8500   40.8600 H   0  0  0  0  0  0  0  0  0  0  0  0
   43.1700   35.6200   39.6000 C   0  0  0  0  0  0  0  0  0  0  0  0
   43.9500   36.1900   40.1500 H   0  0  0  0  0  0  0  0  0  0  0  0
   42.4100   36.3000   39.3700 H   0  0  0  0  0  0  0  0  0  0  0  0
   43.6200   35.2000   38.2100 C   0  0  0  0  0  0  0  0  0  0  0  0
   44.3700   34.5200   38.0200 H   0  0  0  0  0  0  0  0  0  0  0  0
   42.8600   34.7000   37.5900 H   0  0  0  0  0  0  0  0  0  0  0  0
   44.2900   35.9700   37.7600 H   0  0  0  0  0  0  0  0  0  0  0  0
   40.1600   28.9700   52.4000 C   0  0  0  0  0  0  0  0  0  0  0  0
   40.6700   28.0200   52.6900 H   0  0  0  0  0  0  0  0  0  0  0  0
   40.9100   29.6400   51.9200 H   0  0  0  0  0  0  0  0  0  0  0  0
   39.1500   28.5800   51.3100 C   0  0  0  0  0  0  0  0  0  0  0  0
   38.2500   28.0900   51.7600 H   0  0  0  0  0  0  0  0  0  0  0  0
   39.6300   27.8400   50.6300 H   0  0  0  0  0  0  0  0  0  0  0  0
   38.7500   29.8400   50.5400 C   0  0  0  0  0  0  0  0  0  0  0  0
   39.5500   30.5400   50.2500 H   0  0  0  0  0  0  0  0  0  0  0  0
   38.2000   30.3700   51.3500 H   0  0  0  0  0  0  0  0  0  0  0  0
   38.0100   29.5900   49.2300 C   0  0  0  0  0  0  0  0  0  0  0  0
   37.3400   28.7200   49.4500 H   0  0  0  0  0  0  0  0  0  0  0  0
   38.6000   29.1700   48.4200 H   0  0  0  0  0  0  0  0  0  0  0  0
   37.3000   30.8300   48.5800 C   0  0  0  0  0  0  0  0  0  0  0  0
   36.5900   31.3400   49.1900 H   0  0  0  0  0  0  0  0  0  0  0  0
   36.6800   30.5200   47.7100 H   0  0  0  0  0  0  0  0  0  0  0  0
   37.7600   32.2200   48.4600 C   0  0  0  0  0  0  0  0  0  0  0  0
   38.5200   32.3200   49.2500 H   0  0  0  0  0  0  0  0  0  0  0  0
   36.9400   33.0100   48.6400 H   0  0  0  0  0  0  0  0  0  0  0  0
   38.0000   32.1500   47.0000 C   0  0  0  0  0  0  0  0  0  0  0  0
   38.3800   33.1500   46.7900 H   0  0  0  0  0  0  0  0  0  0  0  0
   37.0100   31.9900   46.4700 H   0  0  0  0  0  0  0  0  0  0  0  0
   38.9400   30.9900   46.6300 C   0  0  0  0  0  0  0  0  0  0  0  0
   38.4200   30.0100   46.5200 H   0  0  0  0  0  0  0  0  0  0  0  0
   39.7100   30.8800   47.4300 H   0  0  0  0  0  0  0  0  0  0  0  0
   39.6300   31.2100   45.3000 C   0  0  0  0  0  0  0  0  0  0  0  0
   40.0700   30.2300   45.0000 H   0  0  0  0  0  0  0  0  0  0  0  0
   40.4600   31.9400   45.4400 H   0  0  0  0  0  0  0  0  0  0  0  0
   38.6500   31.6800   44.2200 C   0  0  0  0  0  0  0  0  0  0  0  0
   38.1900   32.6400   44.5400 H   0  0  0  0  0  0  0  0  0  0  0  0
   37.8200   30.9400   44.1300 H   0  0  0  0  0  0  0  0  0  0  0  0
   39.3400   31.9300   42.8700 C   0  0  0  0  0  0  0  0  0  0  0  0
   39.9100   31.0300   42.5700 H   0  0  0  0  0  0  0  0  0  0  0  0
   40.0900   32.7500   42.9900 H   0  0  0  0  0  0  0  0  0  0  0  0
   38.4100   32.3100   41.7000 C   0  0  0  0  0  0  0  0  0  0  0  0
   37.8800   31.3900   41.3700 H   0  0  0  0  0  0  0  0  0  0  0  0
   39.0500   32.6600   40.8600 H   0  0  0  0  0  0  0  0  0  0  0  0
   37.3700   33.3900   41.9900 C   0  0  0  0  0  0  0  0  0  0  0  0
   36.7200   33.0700   42.8300 H   0  0  0  0  0  0  0  0  0  0  0  0
   36.7400   33.4700   41.0700 H   0  0  0  0  0  0  0  0  0  0  0  0
   37.9200   34.8000   42.2600 C   0  0  0  0  0  0  0  0  0  0  0  0
   38.3600   35.2100   41.3200 H   0  0  0  0  0  0  0  0  0  0  0  0
   37.1100   35.4900   42.5500 H   0  0  0  0  0  0  0  0  0  0  0  0
   38.6700   34.7800   43.0800 H   0  0  0  0  0  0  0  0  0  0  0  0
  1  2  1  6  0  0  0
  1  3  1  0  0  0  0
  1  5  1  0  0  0  0
  3  4  1  0  0  0  0
  5  6  1  6  0  0  0
  5  7  1  0  0  0  0
  5  9  1  0  0  0  0
  8  7  1  0  0  0  0
  9 10  1  1  0  0  0
  9 11  1  0  0  0  0
 11 12  1  0  0  0  0
 13 14  1  6  0  0  0
 13  9  1  0  0  0  0
 13 15  1  0  0  0  0
 15 16  1  0  0  0  0
 16 17  1  0  0  0  0
 16 18  1  0  0  0  0
 19 16  2  0  0  0  0
 20 21  1  1  0  0  0
 20 13  1  0  0  0  0
 22 20  1  0  0  0  0
 22 23  1  0  0  0  0
 24 25  1  6  0  0  0
 24  1  1  0  0  0  0
 24 20  1  0  0  0  0
 26 30  1  6  0  0  0
 26 28  1  0  0  0  0
 26 29  1  0  0  0  0
 27 26  2  0  0  0  0
 29 24  1  0  0  0  0
 30 31  1  0  0  0  0
 31 33  1  0  0  0  0
 32 31  1  0  0  0  0
 34 31  1  0  0  0  0
 34 35  1  1  0  0  0
 36 34  1  0  0  0  0
 37 36  1  0  0  0  0
 37 38  2  0  0  0  0
 39 51  1  0  0  0  0
 39 37  1  0  0  0  0
 40 39  1  0  0  0  0
 41 39  1  0  0  0  0
 42 34  1  0  0  0  0
 42 44  1  0  0  0  0
 43 42  1  0  0  0  0
 45 42  1  0  0  0  0
 46 45  1  0  0  0  0
 47 46  2  0  0  0  0
 48 50  1  0  0  0  0
 48 46  1  0  0  0  0
 49 48  1  0  0  0  0
 51 53  1  0  0  0  0
 51 52  1  0  0  0  0
 54 56  1  0  0  0  0
 54 51  1  0  0  0  0
 55 54  1  0  0  0  0
 57 58  1  0  0  0  0
 57 54  1  0  0  0  0
 59 57  1  0  0  0  0
 60 57  1  0  0  0  0
 61 60  1  0  0  0  0
 62 60  1  0  0  0  0
 63 64  1  0  0  0  0
 63 60  1  0  0  0  0
 65 63  1  0  0  0  0
 66 67  1  0  0  0  0
 66 63  1  0  0  0  0
 68 66  1  0  0  0  0
 69 70  1  0  0  0  0
 69 66  1  0  0  0  0
 71 69  2  0  0  0  0
 72 71  1  0  0  0  0
 73 74  1  0  0  0  0
 73 71  1  0  0  0  0
 75 73  1  0  0  0  0
 76 73  1  0  0  0  0
 76 77  1  0  0  0  0
 78 76  1  0  0  0  0
 79 78  1  0  0  0  0
 80 81  1  0  0  0  0
 80 78  1  0  0  0  0
 82 80  1  0  0  0  0
 83 85  1  0  0  0  0
 83 80  1  0  0  0  0
 84 83  1  0  0  0  0
 86 88  1  0  0  0  0
 86 83  1  0  0  0  0
 87 86  1  0  0  0  0
 89 90  1  0  0  0  0
 89 86  1  0  0  0  0
 91 89  1  0  0  0  0
 92 89  1  0  0  0  0
 93 92  1  0  0  0  0
 94 92  1  0  0  0  0
 95 92  1  0  0  0  0
 96 97  1  0  0  0  0
 96 48  1  0  0  0  0
 98 96  1  0  0  0  0
 99100  1  0  0  0  0
 99 96  1  0  0  0  0
101 99  1  0  0  0  0
102 99  1  0  0  0  0
102104  1  0  0  0  0
103102  1  0  0  0  0
105106  1  0  0  0  0
105102  1  0  0  0  0
107105  1  0  0  0  0
108109  1  0  0  0  0
108105  1  0  0  0  0
110108  1  0  0  0  0
111108  1  0  0  0  0
111113  1  0  0  0  0
111112  1  0  0  0  0
114111  1  0  0  0  0
115114  1  0  0  0  0
116114  1  0  0  0  0
117114  1  0  0  0  0
117119  1  0  0  0  0
118117  1  0  0  0  0
120122  1  0  0  0  0
120117  1  0  0  0  0
121120  1  0  0  0  0
123124  1  0  0  0  0
123120  1  0  0  0  0
125123  1  0  0  0  0
126128  1  0  0  0  0
126123  1  0  0  0  0
127126  1  0  0  0  0
129132  1  0  0  0  0
129126  1  0  0  0  0
130129  1  0  0  0  0
131129  1  0  0  0  0
132135  1  0  0  0  0
132133  1  0  0  0  0
134132  1  0  0  0  0
135137  1  0  0  0  0
135138  1  0  0  0  0
136135  1  0  0  0  0
M  END
