DXPA
 OpenBabel02161614153D

108107  0  0  1  0  0  0  0  0999 V2000
    8.6700   30.8800   57.0700 P   0  0  1  0  0  0  0  0  0  0  0  0
    9.6700   30.5300   58.0900 O   0  0  0  0  0  0  0  0  0  0  0  0
    7.2400   30.9400   57.4000 O   0  0  0  0  0  0  0  0  0  0  0  0
    9.0300   32.3500   56.6500 O   0  0  0  0  0  0  0  0  0  0  0  0
    8.9500   32.8500   57.4600 H   0  0  0  0  0  0  0  0  0  0  0  0
    8.8600   30.0300   55.7900 O   0  0  0  0  0  0  0  0  0  0  0  0
    7.9400   30.1400   54.7300 C   0  0  0  0  0  0  0  0  0  0  0  0
    7.7800   31.1800   54.3700 H   0  0  0  0  0  0  0  0  0  0  0  0
    6.9600   29.6700   54.9900 H   0  0  0  0  0  0  0  0  0  0  0  0
    8.6000   29.3800   53.6100 C   0  0  2  0  0  0  0  0  0  0  0  0
    8.4400   28.3300   53.7800 H   0  0  0  0  0  0  0  0  0  0  0  0
   10.0300   29.9800   53.4200 O   0  0  0  0  0  0  0  0  0  0  0  0
   11.4000   29.6000   53.7600 C   0  0  0  0  0  0  0  0  0  0  0  0
   11.8400   28.7100   54.3700 O   0  0  0  0  0  0  0  0  0  0  0  0
   12.5700   30.0800   52.8400 C   0  0  0  0  0  0  0  0  0  0  0  0
   13.4500   30.0800   53.5300 H   0  0  0  0  0  0  0  0  0  0  0  0
   12.2700   31.0000   52.3600 H   0  0  0  0  0  0  0  0  0  0  0  0
    7.5000   29.4500   52.3400 C   0  0  0  0  0  0  0  0  0  0  0  0
    7.3000   30.5000   52.1000 H   0  0  0  0  0  0  0  0  0  0  0  0
    6.6100   29.0000   52.8200 H   0  0  0  0  0  0  0  0  0  0  0  0
    7.6700   28.7100   51.0800 O   0  0  0  0  0  0  0  0  0  0  0  0
    6.7000   28.2100   50.2900 C   0  0  0  0  0  0  0  0  0  0  0  0
    5.5600   28.0100   50.6700 O   0  0  0  0  0  0  0  0  0  0  0  0
    7.2800   27.8300   48.8300 C   0  0  0  0  0  0  0  0  0  0  0  0
    7.8600   26.9400   48.9300 H   0  0  0  0  0  0  0  0  0  0  0  0
    7.8600   28.7600   48.9000 H   0  0  0  0  0  0  0  0  0  0  0  0
   13.1400   29.0800   51.7600 C   0  0  0  0  0  0  0  0  0  0  0  0
   12.5500   29.3900   50.9200 H   0  0  0  0  0  0  0  0  0  0  0  0
   12.9000   28.0300   51.9800 H   0  0  0  0  0  0  0  0  0  0  0  0
   14.3000   29.4600   50.8800 C   0  0  0  0  0  0  0  0  0  0  0  0
   15.2300   29.2200   51.4100 H   0  0  0  0  0  0  0  0  0  0  0  0
   14.0600   30.5100   50.8900 H   0  0  0  0  0  0  0  0  0  0  0  0
   14.3400   28.9600   49.4100 C   0  0  0  0  0  0  0  0  0  0  0  0
   13.8300   27.9900   49.6000 H   0  0  0  0  0  0  0  0  0  0  0  0
   15.4000   28.9000   49.0700 H   0  0  0  0  0  0  0  0  0  0  0  0
   13.5300   29.2300   48.1400 C   0  0  0  0  0  0  0  0  0  0  0  0
   13.4200   30.2800   47.8400 H   0  0  0  0  0  0  0  0  0  0  0  0
   12.5600   28.8600   48.4300 H   0  0  0  0  0  0  0  0  0  0  0  0
   13.9800   28.3300   46.9600 C   0  0  0  0  0  0  0  0  0  0  0  0
   13.9600   27.2400   47.2000 H   0  0  0  0  0  0  0  0  0  0  0  0
   15.0200   28.5900   46.6800 H   0  0  0  0  0  0  0  0  0  0  0  0
   13.0700   28.5400   45.7500 C   0  0  0  0  0  0  0  0  0  0  0  0
   12.8300   29.6100   45.6600 H   0  0  0  0  0  0  0  0  0  0  0  0
   12.1000   28.0400   46.0000 H   0  0  0  0  0  0  0  0  0  0  0  0
   13.7300   28.0500   44.4900 C   0  0  0  0  0  0  0  0  0  0  0  0
   14.7900   28.2800   44.3400 H   0  0  0  0  0  0  0  0  0  0  0  0
   13.1200   27.3600   43.5600 C   0  0  0  0  0  0  0  0  0  0  0  0
   13.6500   27.0100   42.6600 H   0  0  0  0  0  0  0  0  0  0  0  0
   11.7000   26.9900   43.6400 C   0  0  0  0  0  0  0  0  0  0  0  0
   11.0700   27.7000   43.1000 H   0  0  0  0  0  0  0  0  0  0  0  0
   11.2400   27.0200   44.6600 H   0  0  0  0  0  0  0  0  0  0  0  0
   11.6900   25.5200   43.2000 C   0  0  0  0  0  0  0  0  0  0  0  0
   10.7800   25.3600   43.7200 H   0  0  0  0  0  0  0  0  0  0  0  0
   12.2400   24.8600   43.8500 H   0  0  0  0  0  0  0  0  0  0  0  0
   11.9200   24.9700   41.6500 C   0  0  0  0  0  0  0  0  0  0  0  0
   12.1300   23.9100   41.8300 H   0  0  0  0  0  0  0  0  0  0  0  0
   12.6700   25.7100   41.5100 H   0  0  0  0  0  0  0  0  0  0  0  0
   11.2000   24.4900   40.2100 C   0  0  0  0  0  0  0  0  0  0  0  0
   11.8400   24.2100   39.3600 H   0  0  0  0  0  0  0  0  0  0  0  0
   11.5600   25.4600   39.9400 H   0  0  0  0  0  0  0  0  0  0  0  0
    9.7200   23.8200   39.7300 C   0  0  0  0  0  0  0  0  0  0  0  0
    9.7300   22.7900   40.1100 H   0  0  0  0  0  0  0  0  0  0  0  0
    9.9900   23.5100   38.7400 H   0  0  0  0  0  0  0  0  0  0  0  0
    8.0700   24.2700   39.9400 C   0  0  0  0  0  0  0  0  0  0  0  0
    7.9000   25.3000   40.3000 H   0  0  0  0  0  0  0  0  0  0  0  0
    7.4200   24.5500   39.1200 H   0  0  0  0  0  0  0  0  0  0  0  0
    7.5600   24.0000   40.8800 H   0  0  0  0  0  0  0  0  0  0  0  0
    7.4700   28.3400   47.3300 C   0  0  0  0  0  0  0  0  0  0  0  0
    6.5000   28.7100   47.1300 H   0  0  0  0  0  0  0  0  0  0  0  0
    7.5000   27.4700   46.6500 H   0  0  0  0  0  0  0  0  0  0  0  0
    8.6900   29.2900   46.8300 C   0  0  0  0  0  0  0  0  0  0  0  0
    8.6500   29.1900   45.7400 H   0  0  0  0  0  0  0  0  0  0  0  0
    9.6900   28.9400   46.6000 H   0  0  0  0  0  0  0  0  0  0  0  0
    8.9500   30.7000   47.3900 C   0  0  0  0  0  0  0  0  0  0  0  0
    9.1800   30.7000   48.4800 H   0  0  0  0  0  0  0  0  0  0  0  0
    8.0500   31.3000   47.2000 H   0  0  0  0  0  0  0  0  0  0  0  0
    9.9900   31.5200   46.6100 C   0  0  0  0  0  0  0  0  0  0  0  0
   11.0200   31.1300   46.7700 H   0  0  0  0  0  0  0  0  0  0  0  0
    9.9800   32.5600   47.0100 H   0  0  0  0  0  0  0  0  0  0  0  0
    9.6000   31.5800   45.1300 C   0  0  0  0  0  0  0  0  0  0  0  0
    8.5400   31.9300   45.0700 H   0  0  0  0  0  0  0  0  0  0  0  0
    9.6400   30.5700   44.6800 H   0  0  0  0  0  0  0  0  0  0  0  0
   10.4600   32.5200   44.2900 C   0  0  0  0  0  0  0  0  0  0  0  0
   10.3100   33.5500   44.6600 H   0  0  0  0  0  0  0  0  0  0  0  0
   10.0700   32.4700   43.2400 H   0  0  0  0  0  0  0  0  0  0  0  0
   11.9100   32.1000   44.3800 C   0  0  0  0  0  0  0  0  0  0  0  0
   12.3400   32.2000   45.3900 H   0  0  0  0  0  0  0  0  0  0  0  0
   12.7200   31.6600   43.4000 C   0  0  0  0  0  0  0  0  0  0  0  0
   13.7500   31.4100   43.6700 H   0  0  0  0  0  0  0  0  0  0  0  0
   12.3800   31.4900   41.9400 C   0  0  0  0  0  0  0  0  0  0  0  0
   13.0900   32.0700   41.3200 H   0  0  0  0  0  0  0  0  0  0  0  0
   11.3600   31.8800   41.7100 H   0  0  0  0  0  0  0  0  0  0  0  0
   12.4300   30.0300   41.4700 C   0  0  0  0  0  0  0  0  0  0  0  0
   11.9900   29.3900   42.2600 H   0  0  0  0  0  0  0  0  0  0  0  0
   13.4800   29.7000   41.3100 H   0  0  0  0  0  0  0  0  0  0  0  0
   11.6100   29.7800   40.2000 C   0  0  0  0  0  0  0  0  0  0  0  0
   10.6000   30.2100   40.3200 H   0  0  0  0  0  0  0  0  0  0  0  0
   11.4900   28.6800   40.0900 H   0  0  0  0  0  0  0  0  0  0  0  0
   12.2900   30.2900   38.9200 C   0  0  0  0  0  0  0  0  0  0  0  0
   13.1200   29.6000   38.6600 H   0  0  0  0  0  0  0  0  0  0  0  0
   12.7200   31.2900   39.1200 H   0  0  0  0  0  0  0  0  0  0  0  0
   11.3200   30.3800   37.7400 C   0  0  0  0  0  0  0  0  0  0  0  0
   11.7900   30.9500   36.9000 H   0  0  0  0  0  0  0  0  0  0  0  0
   10.4200   30.9500   38.0600 H   0  0  0  0  0  0  0  0  0  0  0  0
   10.8800   29.0100   37.2400 C   0  0  0  0  0  0  0  0  0  0  0  0
   11.7600   28.3700   36.9900 H   0  0  0  0  0  0  0  0  0  0  0  0
   10.3200   28.5100   38.0600 H   0  0  0  0  0  0  0  0  0  0  0  0
   10.2100   29.0800   36.3600 H   0  0  0  0  0  0  0  0  0  0  0  0
  1  6  1  6  0  0  0
  1  3  2  0  0  0  0
  1  2  1  0  0  0  0
  4  1  1  0  0  0  0
  4  5  1  0  0  0  0
  7  9  1  0  0  0  0
  7  6  1  0  0  0  0
  8  7  1  0  0  0  0
 10 11  1  1  0  0  0
 10  7  1  0  0  0  0
 12 10  1  0  0  0  0
 12 13  1  0  0  0  0
 13 14  2  0  0  0  0
 15 16  1  0  0  0  0
 15 13  1  0  0  0  0
 17 15  1  0  0  0  0
 18 20  1  0  0  0  0
 18 10  1  0  0  0  0
 19 18  1  0  0  0  0
 21 18  1  0  0  0  0
 22 23  2  0  0  0  0
 22 21  1  0  0  0  0
 24 26  1  0  0  0  0
 24 25  1  0  0  0  0
 24 22  1  0  0  0  0
 27 29  1  0  0  0  0
 27 15  1  0  0  0  0
 28 27  1  0  0  0  0
 30 32  1  0  0  0  0
 30 31  1  0  0  0  0
 30 27  1  0  0  0  0
 33 34  1  0  0  0  0
 33 30  1  0  0  0  0
 35 33  1  0  0  0  0
 36 38  1  0  0  0  0
 36 33  1  0  0  0  0
 37 36  1  0  0  0  0
 39 40  1  0  0  0  0
 39 36  1  0  0  0  0
 41 39  1  0  0  0  0
 42 44  1  0  0  0  0
 42 39  1  0  0  0  0
 43 42  1  0  0  0  0
 45 42  1  0  0  0  0
 46 45  1  0  0  0  0
 47 49  1  0  0  0  0
 47 45  2  0  0  0  0
 48 47  1  0  0  0  0
 49 51  1  0  0  0  0
 50 49  1  0  0  0  0
 52 49  1  0  0  0  0
 52 53  1  0  0  0  0
 52 54  1  0  0  0  0
 55 56  1  0  0  0  0
 55 52  1  0  0  0  0
 57 55  1  0  0  0  0
 58 55  1  0  0  0  0
 59 58  1  0  0  0  0
 60 58  1  0  0  0  0
 61 64  1  0  0  0  0
 61 62  1  0  0  0  0
 61 58  1  0  0  0  0
 63 61  1  0  0  0  0
 64 65  1  0  0  0  0
 64 67  1  0  0  0  0
 66 64  1  0  0  0  0
 68 24  1  0  0  0  0
 69 68  1  0  0  0  0
 70 68  1  0  0  0  0
 71 68  1  0  0  0  0
 71 74  1  0  0  0  0
 72 71  1  0  0  0  0
 73 71  1  0  0  0  0
 74 75  1  0  0  0  0
 76 74  1  0  0  0  0
 77 78  1  0  0  0  0
 77 79  1  0  0  0  0
 77 74  1  0  0  0  0
 80 77  1  0  0  0  0
 81 80  1  0  0  0  0
 82 80  1  0  0  0  0
 83 86  1  0  0  0  0
 83 84  1  0  0  0  0
 83 80  1  0  0  0  0
 85 83  1  0  0  0  0
 86 87  1  0  0  0  0
 88 89  1  0  0  0  0
 88 86  2  0  0  0  0
 90 88  1  0  0  0  0
 91 90  1  0  0  0  0
 92 90  1  0  0  0  0
 93 90  1  0  0  0  0
 93 94  1  0  0  0  0
 95 93  1  0  0  0  0
 96 97  1  0  0  0  0
 96 93  1  0  0  0  0
 98 96  1  0  0  0  0
 99101  1  0  0  0  0
 99 96  1  0  0  0  0
100 99  1  0  0  0  0
102104  1  0  0  0  0
102 99  1  0  0  0  0
103102  1  0  0  0  0
105102  1  0  0  0  0
105107  1  0  0  0  0
106105  1  0  0  0  0
108105  1  0  0  0  0
M  END
