PHPC
 OpenBabel02161614153D

154153  0  0  1  0  0  0  0  0999 V2000
   13.0300   16.6700   56.6300 N   0  0  0  0  0  0  0  0  0  0  0  0
   14.4700   16.3700   56.9500 C   0  0  0  0  0  0  0  0  0  0  0  0
   14.7800   15.4400   56.5000 H   0  0  0  0  0  0  0  0  0  0  0  0
   14.6000   16.3200   58.0200 H   0  0  0  0  0  0  0  0  0  0  0  0
   15.0800   17.2000   56.5900 H   0  0  0  0  0  0  0  0  0  0  0  0
   12.9300   16.8300   55.1400 C   0  0  0  0  0  0  0  0  0  0  0  0
   13.2600   17.8300   54.8800 H   0  0  0  0  0  0  0  0  0  0  0  0
   11.9400   16.6700   54.7600 H   0  0  0  0  0  0  0  0  0  0  0  0
   13.6000   16.1500   54.6300 H   0  0  0  0  0  0  0  0  0  0  0  0
   12.2800   15.4900   57.1500 C   0  0  0  0  0  0  0  0  0  0  0  0
   12.6200   15.2700   58.1700 H   0  0  0  0  0  0  0  0  0  0  0  0
   12.4700   14.6100   56.5400 H   0  0  0  0  0  0  0  0  0  0  0  0
   11.2300   15.7000   57.2100 H   0  0  0  0  0  0  0  0  0  0  0  0
   12.5800   17.9200   57.3700 C   0  0  0  0  0  0  0  0  0  0  0  0
   12.9500   17.8600   58.4000 H   0  0  0  0  0  0  0  0  0  0  0  0
   11.5100   17.9800   57.4100 H   0  0  0  0  0  0  0  0  0  0  0  0
   13.0600   19.2700   56.8400 C   0  0  0  0  0  0  0  0  0  0  0  0
   12.8400   20.0500   57.6200 H   0  0  0  0  0  0  0  0  0  0  0  0
   12.5900   19.5800   55.8800 H   0  0  0  0  0  0  0  0  0  0  0  0
   15.3100   20.3900   56.5500 P   0  0  1  0  0  0  0  0  0  0  0  0
   16.3800   20.1400   57.5200 O   0  0  0  0  0  0  0  0  0  0  0  0
   14.4900   21.6200   56.7400 O   0  0  0  0  0  0  0  0  0  0  0  0
   15.8000   20.3000   55.0600 O   0  0  0  0  0  0  0  0  0  0  0  0
   14.4300   19.1300   56.6200 O   0  0  0  0  0  0  0  0  0  0  0  0
   15.5900   19.1500   54.2400 C   0  0  0  0  0  0  0  0  0  0  0  0
   14.5300   18.9900   53.9600 H   0  0  0  0  0  0  0  0  0  0  0  0
   15.9800   18.2400   54.7600 H   0  0  0  0  0  0  0  0  0  0  0  0
   16.4200   19.3000   52.9600 C   0  0  2  0  0  0  0  0  0  0  0  0
   17.4200   19.5100   53.3400 H   0  0  0  0  0  0  0  0  0  0  0  0
   15.9000   20.3600   52.1400 O   0  0  0  0  0  0  0  0  0  0  0  0
   16.6900   21.3600   51.7600 C   0  0  0  0  0  0  0  0  0  0  0  0
   17.8800   21.4900   51.8600 O   0  0  0  0  0  0  0  0  0  0  0  0
   15.9000   22.3800   51.0700 C   0  0  0  0  0  0  0  0  0  0  0  0
   15.5500   23.1100   51.8400 H   0  0  0  0  0  0  0  0  0  0  0  0
   15.0500   21.9300   50.5400 H   0  0  0  0  0  0  0  0  0  0  0  0
   16.5100   17.9900   52.1200 C   0  0  0  0  0  0  0  0  0  0  0  0
   17.0000   17.2200   52.7500 H   0  0  0  0  0  0  0  0  0  0  0  0
   17.1800   18.1300   51.2600 H   0  0  0  0  0  0  0  0  0  0  0  0
   15.2200   17.5200   51.7200 O   0  0  0  0  0  0  0  0  0  0  0  0
   14.9200   17.8200   50.4600 C   0  0  0  0  0  0  0  0  0  0  0  0
   15.6500   18.3100   49.6300 O   0  0  0  0  0  0  0  0  0  0  0  0
   13.5300   17.3900   50.1900 C   0  0  0  0  0  0  0  0  0  0  0  0
   13.1800   16.7600   51.0200 H   0  0  0  0  0  0  0  0  0  0  0  0
   13.5600   16.8100   49.2500 H   0  0  0  0  0  0  0  0  0  0  0  0
   16.8500   23.0800   50.1000 C   0  0  2  0  0  0  0  0  0  0  0  0
   17.6600   23.6300   50.6700 H   0  0  0  0  0  0  0  0  0  0  0  0
   16.0200   24.0400   49.3700 C   0  0  0  0  0  0  0  0  0  0  0  0
   15.2300   24.4000   50.0600 H   0  0  0  0  0  0  0  0  0  0  0  0
   15.5000   23.6700   48.4700 H   0  0  0  0  0  0  0  0  0  0  0  0
   16.7100   24.8300   49.0300 H   0  0  0  0  0  0  0  0  0  0  0  0
   17.4800   22.2600   48.9900 C   0  0  0  0  0  0  0  0  0  0  0  0
   18.2800   21.6800   49.4600 H   0  0  0  0  0  0  0  0  0  0  0  0
   18.0300   23.0200   48.3900 H   0  0  0  0  0  0  0  0  0  0  0  0
   16.4300   21.5000   48.1000 C   0  0  0  0  0  0  0  0  0  0  0  0
   16.2200   22.1800   47.2400 H   0  0  0  0  0  0  0  0  0  0  0  0
   15.5100   21.2900   48.6600 H   0  0  0  0  0  0  0  0  0  0  0  0
   16.9400   20.1700   47.5200 C   0  0  0  0  0  0  0  0  0  0  0  0
   17.0900   19.4700   48.3600 H   0  0  0  0  0  0  0  0  0  0  0  0
   17.8400   20.6400   47.1800 H   0  0  0  0  0  0  0  0  0  0  0  0
   16.3200   19.1900   46.4900 C   0  0  2  0  0  0  0  0  0  0  0  0
   15.5100   18.7100   47.0800 H   0  0  0  0  0  0  0  0  0  0  0  0
   17.2200   18.0300   45.9600 C   0  0  0  0  0  0  0  0  0  0  0  0
   16.6800   17.4800   45.1600 H   0  0  0  0  0  0  0  0  0  0  0  0
   17.4800   17.3300   46.7900 H   0  0  0  0  0  0  0  0  0  0  0  0
   18.1700   18.3000   45.4700 H   0  0  0  0  0  0  0  0  0  0  0  0
   15.6200   19.9000   45.3700 C   0  0  0  0  0  0  0  0  0  0  0  0
   15.2100   20.8300   45.8400 H   0  0  0  0  0  0  0  0  0  0  0  0
   14.7800   19.3300   44.9600 H   0  0  0  0  0  0  0  0  0  0  0  0
   16.4700   20.2500   44.2000 C   0  0  0  0  0  0  0  0  0  0  0  0
   16.3600   19.6000   43.3100 H   0  0  0  0  0  0  0  0  0  0  0  0
   17.5500   20.2300   44.4500 H   0  0  0  0  0  0  0  0  0  0  0  0
   15.9100   21.5900   43.8600 C   0  0  0  0  0  0  0  0  0  0  0  0
   16.0100   22.2500   44.7700 H   0  0  0  0  0  0  0  0  0  0  0  0
   14.8600   21.6700   43.5400 H   0  0  0  0  0  0  0  0  0  0  0  0
   16.7600   22.2600   42.9000 C   0  0  2  0  0  0  0  0  0  0  0  0
   17.5300   22.2600   43.6800 H   0  0  0  0  0  0  0  0  0  0  0  0
   16.0300   23.6600   42.8300 C   0  0  0  0  0  0  0  0  0  0  0  0
   16.7200   24.1200   43.5600 H   0  0  0  0  0  0  0  0  0  0  0  0
   15.8000   23.8900   41.7900 H   0  0  0  0  0  0  0  0  0  0  0  0
   16.3500   24.7200   42.7300 H   0  0  0  0  0  0  0  0  0  0  0  0
   17.7400   21.4500   41.9400 C   0  0  0  0  0  0  0  0  0  0  0  0
   18.1800   20.5500   42.4300 H   0  0  0  0  0  0  0  0  0  0  0  0
   18.6800   21.9300   41.6400 H   0  0  0  0  0  0  0  0  0  0  0  0
   17.0600   21.1400   40.6900 C   0  0  0  0  0  0  0  0  0  0  0  0
   16.0400   20.8700   40.9800 H   0  0  0  0  0  0  0  0  0  0  0  0
   17.6100   20.3100   40.1600 H   0  0  0  0  0  0  0  0  0  0  0  0
   17.0200   22.3500   39.8300 C   0  0  0  0  0  0  0  0  0  0  0  0
   18.0900   22.6000   39.8700 H   0  0  0  0  0  0  0  0  0  0  0  0
   16.6600   23.2900   40.2500 H   0  0  0  0  0  0  0  0  0  0  0  0
   16.1600   21.9300   38.5700 C   0  0  0  0  0  0  0  0  0  0  0  0
   16.4100   20.8600   38.4100 H   0  0  0  0  0  0  0  0  0  0  0  0
   14.7900   22.2700   39.0000 C   0  0  0  0  0  0  0  0  0  0  0  0
   14.1200   21.8800   38.2100 H   0  0  0  0  0  0  0  0  0  0  0  0
   14.7700   23.3900   39.0400 H   0  0  0  0  0  0  0  0  0  0  0  0
   14.5800   21.8700   39.9900 H   0  0  0  0  0  0  0  0  0  0  0  0
   15.9300   22.5300   37.1300 C   0  0  0  0  0  0  0  0  0  0  0  0
   16.4100   23.2100   36.4500 H   0  0  0  0  0  0  0  0  0  0  0  0
   16.7400   21.9700   36.6500 H   0  0  0  0  0  0  0  0  0  0  0  0
   15.8700   23.6000   37.4400 H   0  0  0  0  0  0  0  0  0  0  0  0
   12.5800   18.6000   50.0900 C   0  0  2  0  0  0  0  0  0  0  0  0
   12.9600   19.2900   49.3000 H   0  0  0  0  0  0  0  0  0  0  0  0
   12.5400   19.3600   51.4200 C   0  0  0  0  0  0  0  0  0  0  0  0
   13.5200   19.8400   51.6400 H   0  0  0  0  0  0  0  0  0  0  0  0
   12.3000   18.6800   52.2600 H   0  0  0  0  0  0  0  0  0  0  0  0
   11.7800   20.1700   51.3900 H   0  0  0  0  0  0  0  0  0  0  0  0
   11.1900   18.1000   49.6600 C   0  0  0  0  0  0  0  0  0  0  0  0
   10.5100   18.9700   49.6000 H   0  0  0  0  0  0  0  0  0  0  0  0
   10.8000   17.4200   50.4500 H   0  0  0  0  0  0  0  0  0  0  0  0
   11.1800   17.3400   48.3200 C   0  0  0  0  0  0  0  0  0  0  0  0
   10.1600   17.0400   48.1100 H   0  0  0  0  0  0  0  0  0  0  0  0
   11.7500   16.3900   48.3700 H   0  0  0  0  0  0  0  0  0  0  0  0
   11.5800   18.1700   47.1000 C   0  0  0  0  0  0  0  0  0  0  0  0
   12.6600   18.4200   47.1700 H   0  0  0  0  0  0  0  0  0  0  0  0
   11.0000   19.1200   47.1200 H   0  0  0  0  0  0  0  0  0  0  0  0
   11.3200   17.5200   45.7200 C   0  0  2  0  0  0  0  0  0  0  0  0
   10.2400   17.6300   45.4600 H   0  0  0  0  0  0  0  0  0  0  0  0
   11.6900   16.0200   45.6200 C   0  0  0  0  0  0  0  0  0  0  0  0
   11.0800   15.4000   46.3100 H   0  0  0  0  0  0  0  0  0  0  0  0
   12.7600   15.8500   45.8500 H   0  0  0  0  0  0  0  0  0  0  0  0
   11.5000   15.6700   44.5900 H   0  0  0  0  0  0  0  0  0  0  0  0
   12.0500   18.2700   44.6300 C   0  0  0  0  0  0  0  0  0  0  0  0
   12.0300   17.6100   43.7400 H   0  0  0  0  0  0  0  0  0  0  0  0
   13.1000   18.3900   44.9200 H   0  0  0  0  0  0  0  0  0  0  0  0
   11.4100   19.6200   44.3100 C   0  0  0  0  0  0  0  0  0  0  0  0
   11.6400   20.3300   45.1400 H   0  0  0  0  0  0  0  0  0  0  0  0
   10.3000   19.5300   44.2800 H   0  0  0  0  0  0  0  0  0  0  0  0
   11.9600   20.1400   42.9800 C   0  0  0  0  0  0  0  0  0  0  0  0
   13.0600   20.1500   43.1100 H   0  0  0  0  0  0  0  0  0  0  0  0
   11.6500   21.1900   42.8400 H   0  0  0  0  0  0  0  0  0  0  0  0
   11.6200   19.2800   41.7100 C   0  0  1  0  0  0  0  0  0  0  0  0
   11.7800   18.2100   41.9300 H   0  0  0  0  0  0  0  0  0  0  0  0
   10.2100   19.3300   41.2400 C   0  0  0  0  0  0  0  0  0  0  0  0
    9.5800   18.9500   42.0600 H   0  0  0  0  0  0  0  0  0  0  0  0
    9.9300   18.8200   40.3000 H   0  0  0  0  0  0  0  0  0  0  0  0
   10.1400   20.4200   41.0000 H   0  0  0  0  0  0  0  0  0  0  0  0
   12.3700   19.7500   40.4800 C   0  0  0  0  0  0  0  0  0  0  0  0
   12.2600   20.8500   40.3600 H   0  0  0  0  0  0  0  0  0  0  0  0
   11.8900   19.2700   39.5900 H   0  0  0  0  0  0  0  0  0  0  0  0
   13.8000   19.3100   40.5500 C   0  0  0  0  0  0  0  0  0  0  0  0
   14.2600   19.5700   39.5700 H   0  0  0  0  0  0  0  0  0  0  0  0
   14.3100   19.8800   41.3500 H   0  0  0  0  0  0  0  0  0  0  0  0
   13.8800   17.8000   40.8400 C   0  0  0  0  0  0  0  0  0  0  0  0
   13.0900   17.2900   40.2400 H   0  0  0  0  0  0  0  0  0  0  0  0
   13.6600   17.6100   41.9100 H   0  0  0  0  0  0  0  0  0  0  0  0
   15.2200   17.1500   40.5200 C   0  0  0  0  0  0  0  0  0  0  0  0
   15.1600   16.0900   40.8600 H   0  0  0  0  0  0  0  0  0  0  0  0
   16.3400   17.8300   41.2900 C   0  0  0  0  0  0  0  0  0  0  0  0
   16.4900   18.8300   40.8800 H   0  0  0  0  0  0  0  0  0  0  0  0
   17.3000   17.2700   41.2200 H   0  0  0  0  0  0  0  0  0  0  0  0
   16.0500   17.9300   42.3600 H   0  0  0  0  0  0  0  0  0  0  0  0
   15.4300   17.1900   39.0100 C   0  0  0  0  0  0  0  0  0  0  0  0
   14.5400   16.7700   38.5000 H   0  0  0  0  0  0  0  0  0  0  0  0
   16.3300   16.6000   38.7200 H   0  0  0  0  0  0  0  0  0  0  0  0
   15.5700   18.2300   38.6500 H   0  0  0  0  0  0  0  0  0  0  0  0
  1  2  1  0  0  0  0
  1 10  1  0  0  0  0
  1 14  1  0  0  0  0
  2  4  1  0  0  0  0
  3  2  1  0  0  0  0
  5  2  1  0  0  0  0
  6  1  1  0  0  0  0
  7  6  1  0  0  0  0
  8  6  1  0  0  0  0
  9  6  1  0  0  0  0
 10 13  1  0  0  0  0
 10 11  1  0  0  0  0
 12 10  1  0  0  0  0
 14 16  1  0  0  0  0
 14 15  1  0  0  0  0
 17 14  1  0  0  0  0
 17 18  1  0  0  0  0
 19 17  1  0  0  0  0
 20 23  1  6  0  0  0
 20 24  1  0  0  0  0
 20 22  2  0  0  0  0
 20 21  1  0  0  0  0
 24 17  1  0  0  0  0
 25 27  1  0  0  0  0
 25 23  1  0  0  0  0
 26 25  1  0  0  0  0
 28 29  1  1  0  0  0
 28 25  1  0  0  0  0
 30 28  1  0  0  0  0
 31 32  2  0  0  0  0
 31 30  1  0  0  0  0
 33 31  1  0  0  0  0
 33 34  1  0  0  0  0
 35 33  1  0  0  0  0
 36 37  1  0  0  0  0
 36 28  1  0  0  0  0
 38 36  1  0  0  0  0
 39 36  1  0  0  0  0
 40 39  1  0  0  0  0
 41 40  2  0  0  0  0
 42 40  1  0  0  0  0
 42 43  1  0  0  0  0
 44 42  1  0  0  0  0
 45 46  1  1  0  0  0
 45 33  1  0  0  0  0
 47 48  1  0  0  0  0
 47 45  1  0  0  0  0
 49 47  1  0  0  0  0
 50 47  1  0  0  0  0
 51 52  1  0  0  0  0
 51 45  1  0  0  0  0
 53 51  1  0  0  0  0
 54 56  1  0  0  0  0
 54 51  1  0  0  0  0
 55 54  1  0  0  0  0
 57 54  1  0  0  0  0
 57 58  1  0  0  0  0
 59 57  1  0  0  0  0
 60 61  1  1  0  0  0
 60 57  1  0  0  0  0
 62 60  1  0  0  0  0
 62 64  1  0  0  0  0
 63 62  1  0  0  0  0
 65 62  1  0  0  0  0
 66 67  1  0  0  0  0
 66 60  1  0  0  0  0
 68 66  1  0  0  0  0
 69 71  1  0  0  0  0
 69 66  1  0  0  0  0
 70 69  1  0  0  0  0
 72 69  1  0  0  0  0
 72 73  1  0  0  0  0
 74 72  1  0  0  0  0
 75 76  1  1  0  0  0
 75 72  1  0  0  0  0
 77 75  1  0  0  0  0
 77 78  1  0  0  0  0
 79 77  1  0  0  0  0
 80 77  1  0  0  0  0
 81 82  1  0  0  0  0
 81 75  1  0  0  0  0
 83 81  1  0  0  0  0
 84 85  1  0  0  0  0
 84 81  1  0  0  0  0
 86 84  1  0  0  0  0
 87 88  1  0  0  0  0
 87 89  1  0  0  0  0
 87 84  1  0  0  0  0
 90 92  1  0  0  0  0
 90 87  1  0  0  0  0
 91 90  1  0  0  0  0
 92 94  1  0  0  0  0
 92 95  1  0  0  0  0
 93 92  1  0  0  0  0
 96 99  1  0  0  0  0
 96 90  1  0  0  0  0
 97 96  1  0  0  0  0
 98 96  1  0  0  0  0
100101  1  6  0  0  0
100 42  1  0  0  0  0
100102  1  0  0  0  0
102103  1  0  0  0  0
102104  1  0  0  0  0
105102  1  0  0  0  0
106100  1  0  0  0  0
106108  1  0  0  0  0
107106  1  0  0  0  0
109111  1  0  0  0  0
109106  1  0  0  0  0
110109  1  0  0  0  0
112114  1  0  0  0  0
112113  1  0  0  0  0
112109  1  0  0  0  0
115116  1  6  0  0  0
115112  1  0  0  0  0
117115  1  0  0  0  0
117119  1  0  0  0  0
117118  1  0  0  0  0
120117  1  0  0  0  0
121123  1  0  0  0  0
121115  1  0  0  0  0
122121  1  0  0  0  0
124121  1  0  0  0  0
124125  1  0  0  0  0
126124  1  0  0  0  0
127128  1  0  0  0  0
127124  1  0  0  0  0
129127  1  0  0  0  0
130131  1  1  0  0  0
130127  1  0  0  0  0
132130  1  0  0  0  0
132133  1  0  0  0  0
134132  1  0  0  0  0
135132  1  0  0  0  0
136139  1  0  0  0  0
136130  1  0  0  0  0
137136  1  0  0  0  0
138136  1  0  0  0  0
139142  1  0  0  0  0
139141  1  0  0  0  0
140139  1  0  0  0  0
142144  1  0  0  0  0
143142  1  0  0  0  0
145142  1  0  0  0  0
145146  1  0  0  0  0
145147  1  0  0  0  0
147150  1  0  0  0  0
148147  1  0  0  0  0
149147  1  0  0  0  0
151145  1  0  0  0  0
152151  1  0  0  0  0
153151  1  0  0  0  0
154151  1  0  0  0  0
M  END
