DMPI
 OpenBabel02161614153D

121121  0  0  1  0  0  0  0  0999 V2000
    0.1600   33.2100   60.1100 C   0  0  2  0  0  0  0  0  0  0  0  0
   -0.6100   32.6200   59.5700 H   0  0  0  0  0  0  0  0  0  0  0  0
   -0.0400   34.5700   60.4200 O   0  0  0  0  0  0  0  0  0  0  0  0
   -0.9600   34.5600   60.7000 H   0  0  0  0  0  0  0  0  0  0  0  0
    0.2200   32.4700   61.3900 C   0  0  2  0  0  0  0  0  0  0  0  0
    0.2400   31.3900   61.1400 H   0  0  0  0  0  0  0  0  0  0  0  0
   -0.9600   32.7700   62.1700 O   0  0  0  0  0  0  0  0  0  0  0  0
   -1.6500   32.1100   62.0700 H   0  0  0  0  0  0  0  0  0  0  0  0
    1.4500   32.9800   62.0500 C   0  0  1  0  0  0  0  0  0  0  0  0
    1.3800   34.0600   62.3400 H   0  0  0  0  0  0  0  0  0  0  0  0
    1.6600   32.2500   63.2500 O   0  0  0  0  0  0  0  0  0  0  0  0
    1.8800   31.3500   62.9900 H   0  0  0  0  0  0  0  0  0  0  0  0
    2.6200   32.8500   61.1100 C   0  0  2  0  0  0  0  0  0  0  0  0
    2.8100   31.7900   60.8100 H   0  0  0  0  0  0  0  0  0  0  0  0
    3.6800   33.4000   61.8300 O   0  0  0  0  0  0  0  0  0  0  0  0
    4.1300   32.7000   62.3600 H   0  0  0  0  0  0  0  0  0  0  0  0
    2.4300   33.6900   59.8600 C   0  0  1  0  0  0  0  0  0  0  0  0
    2.2900   34.7400   60.1600 H   0  0  0  0  0  0  0  0  0  0  0  0
    3.5700   33.7100   59.0200 O   0  0  0  0  0  0  0  0  0  0  0  0
    3.5200   32.9600   58.4300 H   0  0  0  0  0  0  0  0  0  0  0  0
    1.2400   33.1700   59.1300 C   0  0  2  0  0  0  0  0  0  0  0  0
    1.4000   32.1200   58.8100 H   0  0  0  0  0  0  0  0  0  0  0  0
   -0.1000   33.4100   56.8100 P   0  0  2  0  0  0  0  0  0  0  0  0
    0.5800   32.2500   56.2800 O   0  0  0  0  0  0  0  0  0  0  0  0
   -1.4100   33.1900   57.4100 O   0  0  0  0  0  0  0  0  0  0  0  0
   -0.2400   34.5900   55.7400 O   0  0  0  0  0  0  0  0  0  0  0  0
    0.8200   34.0000   58.0200 O   0  0  0  0  0  0  0  0  0  0  0  0
   -0.7500   35.8800   56.1000 C   0  0  0  0  0  0  0  0  0  0  0  0
   -0.8400   36.0300   57.2000 H   0  0  0  0  0  0  0  0  0  0  0  0
   -1.7000   36.0200   55.5700 H   0  0  0  0  0  0  0  0  0  0  0  0
   -0.0100   37.1000   55.5500 C   0  0  2  0  0  0  0  0  0  0  0  0
   -0.6200   38.0300   55.6500 H   0  0  0  0  0  0  0  0  0  0  0  0
    0.3900   36.8300   54.1900 O   0  0  0  0  0  0  0  0  0  0  0  0
    0.7000   37.8500   53.4300 C   0  0  0  0  0  0  0  0  0  0  0  0
    0.7600   39.0200   53.7600 O   0  0  0  0  0  0  0  0  0  0  0  0
    0.7900   37.3400   51.9900 C   0  0  0  0  0  0  0  0  0  0  0  0
   -0.1300   37.6000   51.4400 H   0  0  0  0  0  0  0  0  0  0  0  0
    0.9500   36.2400   52.0100 H   0  0  0  0  0  0  0  0  0  0  0  0
    1.1300   37.3200   56.5400 C   0  0  0  0  0  0  0  0  0  0  0  0
    1.3700   38.1700   55.8400 H   0  0  0  0  0  0  0  0  0  0  0  0
    1.8900   38.0500   56.8000 H   0  0  0  0  0  0  0  0  0  0  0  0
    1.7800   36.0300   56.7400 O   0  0  0  0  0  0  0  0  0  0  0  0
    2.6500   35.9600   55.8500 C   0  0  0  0  0  0  0  0  0  0  0  0
    2.9200   36.9400   55.1700 O   0  0  0  0  0  0  0  0  0  0  0  0
    3.1700   34.5100   55.7400 C   0  0  0  0  0  0  0  0  0  0  0  0
    3.1500   33.9400   56.6700 H   0  0  0  0  0  0  0  0  0  0  0  0
    4.2200   34.4500   56.0300 H   0  0  0  0  0  0  0  0  0  0  0  0
    1.9100   37.9700   51.2100 C   0  0  0  0  0  0  0  0  0  0  0  0
    2.2300   38.9400   51.6700 H   0  0  0  0  0  0  0  0  0  0  0  0
    1.6500   38.2100   50.1700 H   0  0  0  0  0  0  0  0  0  0  0  0
    3.0200   36.9700   51.0900 C   0  0  0  0  0  0  0  0  0  0  0  0
    2.9900   35.8800   50.9600 H   0  0  0  0  0  0  0  0  0  0  0  0
    3.4400   37.0500   52.0800 H   0  0  0  0  0  0  0  0  0  0  0  0
    3.9600   37.5800   50.1700 C   0  0  0  0  0  0  0  0  0  0  0  0
    4.8800   36.9800   50.2300 H   0  0  0  0  0  0  0  0  0  0  0  0
    4.0400   38.6200   50.5000 H   0  0  0  0  0  0  0  0  0  0  0  0
    3.6400   37.8500   48.7600 C   0  0  0  0  0  0  0  0  0  0  0  0
    4.5100   37.9800   48.1400 H   0  0  0  0  0  0  0  0  0  0  0  0
    3.1800   38.8300   48.5900 H   0  0  0  0  0  0  0  0  0  0  0  0
    3.3800   36.6000   48.1500 C   0  0  0  0  0  0  0  0  0  0  0  0
    2.3500   36.4700   48.5100 H   0  0  0  0  0  0  0  0  0  0  0  0
    4.1000   35.8500   48.5900 H   0  0  0  0  0  0  0  0  0  0  0  0
    3.6800   36.9200   46.7100 C   0  0  0  0  0  0  0  0  0  0  0  0
    4.7900   37.0300   46.5200 H   0  0  0  0  0  0  0  0  0  0  0  0
    3.2400   37.9200   46.4900 H   0  0  0  0  0  0  0  0  0  0  0  0
    3.2000   35.7600   45.9800 C   0  0  0  0  0  0  0  0  0  0  0  0
    2.1000   35.8200   46.1100 H   0  0  0  0  0  0  0  0  0  0  0  0
    3.6000   34.8800   46.5400 H   0  0  0  0  0  0  0  0  0  0  0  0
    3.7500   35.8500   44.5800 C   0  0  0  0  0  0  0  0  0  0  0  0
    3.4400   36.8300   44.1500 H   0  0  0  0  0  0  0  0  0  0  0  0
    3.2600   35.0300   44.0200 H   0  0  0  0  0  0  0  0  0  0  0  0
    5.2800   35.6700   44.4600 C   0  0  0  0  0  0  0  0  0  0  0  0
    5.6100   34.8400   45.1200 H   0  0  0  0  0  0  0  0  0  0  0  0
    5.8300   36.5900   44.7900 H   0  0  0  0  0  0  0  0  0  0  0  0
    5.7200   35.4500   43.0100 C   0  0  0  0  0  0  0  0  0  0  0  0
    5.5000   34.4000   42.7000 H   0  0  0  0  0  0  0  0  0  0  0  0
    6.8200   35.5800   42.9200 H   0  0  0  0  0  0  0  0  0  0  0  0
    5.0800   36.4800   42.0800 C   0  0  0  0  0  0  0  0  0  0  0  0
    5.0500   37.4400   42.6500 H   0  0  0  0  0  0  0  0  0  0  0  0
    4.0200   36.2300   41.8400 H   0  0  0  0  0  0  0  0  0  0  0  0
    5.9200   36.6900   40.8200 C   0  0  0  0  0  0  0  0  0  0  0  0
    5.9200   35.7800   40.1900 H   0  0  0  0  0  0  0  0  0  0  0  0
    5.5700   37.5000   40.1700 H   0  0  0  0  0  0  0  0  0  0  0  0
    6.9400   36.9700   41.1400 H   0  0  0  0  0  0  0  0  0  0  0  0
    2.6400   33.8600   54.3600 C   0  0  0  0  0  0  0  0  0  0  0  0
    3.1000   34.3900   53.4800 H   0  0  0  0  0  0  0  0  0  0  0  0
    1.5800   34.0300   54.4800 H   0  0  0  0  0  0  0  0  0  0  0  0
    2.5900   32.3000   53.9800 C   0  0  0  0  0  0  0  0  0  0  0  0
    2.5000   31.6500   54.8500 H   0  0  0  0  0  0  0  0  0  0  0  0
    3.4100   31.5900   53.7600 H   0  0  0  0  0  0  0  0  0  0  0  0
    1.9100   31.9700   52.7700 C   0  0  0  0  0  0  0  0  0  0  0  0
    0.9600   32.4600   53.0300 H   0  0  0  0  0  0  0  0  0  0  0  0
    1.9700   30.8800   52.9000 H   0  0  0  0  0  0  0  0  0  0  0  0
    2.5800   32.3100   51.4600 C   0  0  0  0  0  0  0  0  0  0  0  0
    3.5400   31.8500   51.1700 H   0  0  0  0  0  0  0  0  0  0  0  0
    2.5400   33.4000   51.2900 H   0  0  0  0  0  0  0  0  0  0  0  0
    1.7500   31.6500   50.4800 C   0  0  0  0  0  0  0  0  0  0  0  0
    0.8400   32.2600   50.7000 H   0  0  0  0  0  0  0  0  0  0  0  0
    1.6400   30.5700   50.8000 H   0  0  0  0  0  0  0  0  0  0  0  0
    2.0800   31.8800   49.0400 C   0  0  0  0  0  0  0  0  0  0  0  0
    2.8700   31.1300   48.7600 H   0  0  0  0  0  0  0  0  0  0  0  0
    2.3900   32.9200   48.8900 H   0  0  0  0  0  0  0  0  0  0  0  0
    0.7900   31.7900   48.2200 C   0  0  0  0  0  0  0  0  0  0  0  0
   -0.1500   32.2800   48.5100 H   0  0  0  0  0  0  0  0  0  0  0  0
    0.5100   30.9700   48.8200 H   0  0  0  0  0  0  0  0  0  0  0  0
    1.0500   31.6600   46.7000 C   0  0  0  0  0  0  0  0  0  0  0  0
    1.8600   30.9300   46.4900 H   0  0  0  0  0  0  0  0  0  0  0  0
    1.4200   32.6800   46.4900 H   0  0  0  0  0  0  0  0  0  0  0  0
   -0.0700   31.3600   45.6600 C   0  0  0  0  0  0  0  0  0  0  0  0
   -1.0400   31.8200   45.9500 H   0  0  0  0  0  0  0  0  0  0  0  0
   -0.2300   30.2600   45.5600 H   0  0  0  0  0  0  0  0  0  0  0  0
    0.3600   31.9600   44.3100 C   0  0  0  0  0  0  0  0  0  0  0  0
    1.3500   31.5100   44.0400 H   0  0  0  0  0  0  0  0  0  0  0  0
    0.4800   33.0600   44.3900 H   0  0  0  0  0  0  0  0  0  0  0  0
   -0.5300   31.7600   43.1100 C   0  0  0  0  0  0  0  0  0  0  0  0
   -1.6100   32.0100   43.2200 H   0  0  0  0  0  0  0  0  0  0  0  0
   -0.4400   30.7000   42.9400 H   0  0  0  0  0  0  0  0  0  0  0  0
   -0.0300   32.4300   41.8400 C   0  0  0  0  0  0  0  0  0  0  0  0
    0.1600   33.5100   41.8600 H   0  0  0  0  0  0  0  0  0  0  0  0
    0.8400   31.8900   41.3800 H   0  0  0  0  0  0  0  0  0  0  0  0
   -0.9500   32.4100   41.2400 H   0  0  0  0  0  0  0  0  0  0  0  0
  1  2  1  6  0  0  0
  1  3  1  0  0  0  0
  1  5  1  0  0  0  0
  3  4  1  0  0  0  0
  5  6  1  6  0  0  0
  5  9  1  0  0  0  0
  5  7  1  0  0  0  0
  8  7  1  0  0  0  0
  9 10  1  1  0  0  0
  9 11  1  0  0  0  0
 12 11  1  0  0  0  0
 13 14  1  6  0  0  0
 13 15  1  0  0  0  0
 13  9  1  0  0  0  0
 15 16  1  0  0  0  0
 17 18  1  1  0  0  0
 17 13  1  0  0  0  0
 19 17  1  0  0  0  0
 20 19  1  0  0  0  0
 21 22  1  6  0  0  0
 21 17  1  0  0  0  0
 21  1  1  0  0  0  0
 23 26  1  6  0  0  0
 23 25  1  0  0  0  0
 23 27  1  0  0  0  0
 24 23  2  0  0  0  0
 26 28  1  0  0  0  0
 27 21  1  0  0  0  0
 28 29  1  0  0  0  0
 30 28  1  0  0  0  0
 31 32  1  1  0  0  0
 31 28  1  0  0  0  0
 31 39  1  0  0  0  0
 33 31  1  0  0  0  0
 34 35  2  0  0  0  0
 34 33  1  0  0  0  0
 36 38  1  0  0  0  0
 36 34  1  0  0  0  0
 37 36  1  0  0  0  0
 39 42  1  0  0  0  0
 39 41  1  0  0  0  0
 40 39  1  0  0  0  0
 43 42  1  0  0  0  0
 44 43  2  0  0  0  0
 45 43  1  0  0  0  0
 45 47  1  0  0  0  0
 45 46  1  0  0  0  0
 48 49  1  0  0  0  0
 48 36  1  0  0  0  0
 50 48  1  0  0  0  0
 51 48  1  0  0  0  0
 51 53  1  0  0  0  0
 52 51  1  0  0  0  0
 54 55  1  0  0  0  0
 54 56  1  0  0  0  0
 54 51  1  0  0  0  0
 57 54  1  0  0  0  0
 58 57  1  0  0  0  0
 59 57  1  0  0  0  0
 60 61  1  0  0  0  0
 60 62  1  0  0  0  0
 60 57  1  0  0  0  0
 63 60  1  0  0  0  0
 64 63  1  0  0  0  0
 65 63  1  0  0  0  0
 66 67  1  0  0  0  0
 66 68  1  0  0  0  0
 66 63  1  0  0  0  0
 69 66  1  0  0  0  0
 70 69  1  0  0  0  0
 71 69  1  0  0  0  0
 72 69  1  0  0  0  0
 72 74  1  0  0  0  0
 72 73  1  0  0  0  0
 75 72  1  0  0  0  0
 76 75  1  0  0  0  0
 77 75  1  0  0  0  0
 78 79  1  0  0  0  0
 78 75  1  0  0  0  0
 80 78  1  0  0  0  0
 81 84  1  0  0  0  0
 81 78  1  0  0  0  0
 82 81  1  0  0  0  0
 83 81  1  0  0  0  0
 85 87  1  0  0  0  0
 85 45  1  0  0  0  0
 86 85  1  0  0  0  0
 88 85  1  0  0  0  0
 88 89  1  0  0  0  0
 90 88  1  0  0  0  0
 91 93  1  0  0  0  0
 91 92  1  0  0  0  0
 91 88  1  0  0  0  0
 94 91  1  0  0  0  0
 95 94  1  0  0  0  0
 96 94  1  0  0  0  0
 97 98  1  0  0  0  0
 97 99  1  0  0  0  0
 97 94  1  0  0  0  0
100 97  1  0  0  0  0
101100  1  0  0  0  0
102100  1  0  0  0  0
103104  1  0  0  0  0
103105  1  0  0  0  0
103100  1  0  0  0  0
106103  1  0  0  0  0
107106  1  0  0  0  0
108106  1  0  0  0  0
109110  1  0  0  0  0
109106  1  0  0  0  0
111109  1  0  0  0  0
112114  1  0  0  0  0
112109  1  0  0  0  0
113112  1  0  0  0  0
115116  1  0  0  0  0
115112  1  0  0  0  0
117115  1  0  0  0  0
118119  1  0  0  0  0
118115  1  0  0  0  0
120118  1  0  0  0  0
121118  1  0  0  0  0
M  END
