DNPA
 OpenBabel02161614153D

156155  0  0  1  0  0  0  0  0999 V2000
    7.7800   14.7200   64.6600 P   0  0  1  0  0  0  0  0  0  0  0  0
    6.9300   13.6900   64.0700 O   0  0  0  0  0  0  0  0  0  0  0  0
    7.7000   15.2200   66.0400 O   0  0  0  0  0  0  0  0  0  0  0  0
    9.2500   14.2000   64.4900 O   0  0  0  0  0  0  0  0  0  0  0  0
    9.2000   13.2400   64.6000 H   0  0  0  0  0  0  0  0  0  0  0  0
    7.7000   15.9300   63.6600 O   0  0  0  0  0  0  0  0  0  0  0  0
    8.5900   17.0300   63.8300 C   0  0  0  0  0  0  0  0  0  0  0  0
    9.6200   16.7100   64.0800 H   0  0  0  0  0  0  0  0  0  0  0  0
    8.2100   17.6200   64.6600 H   0  0  0  0  0  0  0  0  0  0  0  0
    8.7000   17.9800   62.6000 C   0  0  2  0  0  0  0  0  0  0  0  0
    8.6300   19.0200   63.0000 H   0  0  0  0  0  0  0  0  0  0  0  0
    7.6600   17.6800   61.6700 O   0  0  0  0  0  0  0  0  0  0  0  0
    7.3200   18.7000   60.8900 C   0  0  0  0  0  0  0  0  0  0  0  0
    7.6500   19.8500   61.0400 O   0  0  0  0  0  0  0  0  0  0  0  0
    6.3200   18.1600   59.8900 C   0  0  0  0  0  0  0  0  0  0  0  0
    5.7200   19.0200   59.5100 H   0  0  0  0  0  0  0  0  0  0  0  0
    5.6300   17.4700   60.4100 H   0  0  0  0  0  0  0  0  0  0  0  0
   10.0800   17.8100   61.9200 C   0  0  0  0  0  0  0  0  0  0  0  0
   10.8300   18.2800   62.6100 H   0  0  0  0  0  0  0  0  0  0  0  0
   10.1100   18.3800   60.9600 H   0  0  0  0  0  0  0  0  0  0  0  0
   10.3200   16.4100   61.6900 O   0  0  0  0  0  0  0  0  0  0  0  0
   11.6100   16.1300   61.5200 C   0  0  0  0  0  0  0  0  0  0  0  0
   12.5000   16.9600   61.5400 O   0  0  0  0  0  0  0  0  0  0  0  0
   11.7400   14.6300   61.3900 C   0  0  0  0  0  0  0  0  0  0  0  0
   10.8900   14.1200   61.8800 H   0  0  0  0  0  0  0  0  0  0  0  0
   12.6500   14.3000   61.9300 H   0  0  0  0  0  0  0  0  0  0  0  0
    7.0300   17.4600   58.7200 C   0  0  0  0  0  0  0  0  0  0  0  0
    6.2600   17.0800   58.0100 H   0  0  0  0  0  0  0  0  0  0  0  0
    7.6300   16.5800   59.0700 H   0  0  0  0  0  0  0  0  0  0  0  0
    7.9600   18.4300   57.9800 C   0  0  0  0  0  0  0  0  0  0  0  0
    8.7900   18.7400   58.6600 H   0  0  0  0  0  0  0  0  0  0  0  0
    7.3800   19.3500   57.7300 H   0  0  0  0  0  0  0  0  0  0  0  0
    8.6100   17.9000   56.6800 C   0  0  0  0  0  0  0  0  0  0  0  0
    9.4200   17.1900   56.9500 H   0  0  0  0  0  0  0  0  0  0  0  0
    9.0800   18.7700   56.1700 H   0  0  0  0  0  0  0  0  0  0  0  0
    7.6300   17.2100   55.7100 C   0  0  0  0  0  0  0  0  0  0  0  0
    6.7600   17.8700   55.5100 H   0  0  0  0  0  0  0  0  0  0  0  0
    7.2300   16.3100   56.2200 H   0  0  0  0  0  0  0  0  0  0  0  0
    8.2800   16.7300   54.3900 C   0  0  0  0  0  0  0  0  0  0  0  0
    7.7500   15.8100   54.0600 H   0  0  0  0  0  0  0  0  0  0  0  0
    9.3300   16.4600   54.6000 H   0  0  0  0  0  0  0  0  0  0  0  0
    8.2600   17.7300   53.2300 C   0  0  0  0  0  0  0  0  0  0  0  0
    9.0300   17.4900   52.4800 H   0  0  0  0  0  0  0  0  0  0  0  0
    8.4800   18.7500   53.6400 H   0  0  0  0  0  0  0  0  0  0  0  0
    6.9000   17.7900   52.5300 C   0  0  0  0  0  0  0  0  0  0  0  0
    6.8400   18.6900   51.8700 H   0  0  0  0  0  0  0  0  0  0  0  0
    6.2400   17.8600   53.4100 H   0  0  0  0  0  0  0  0  0  0  0  0
    6.2500   16.5900   51.8600 C   0  0  0  0  0  0  0  0  0  0  0  0
    5.3300   16.9600   51.3400 H   0  0  0  0  0  0  0  0  0  0  0  0
    5.9000   15.8800   52.6400 H   0  0  0  0  0  0  0  0  0  0  0  0
    7.1500   15.8700   50.8900 C   0  0  0  0  0  0  0  0  0  0  0  0
    7.8600   15.2500   51.4900 H   0  0  0  0  0  0  0  0  0  0  0  0
    7.7400   16.6100   50.3000 H   0  0  0  0  0  0  0  0  0  0  0  0
    6.2900   15.0000   49.9900 C   0  0  0  0  0  0  0  0  0  0  0  0
    5.6900   15.6400   49.3100 H   0  0  0  0  0  0  0  0  0  0  0  0
    5.5800   14.4400   50.6400 H   0  0  0  0  0  0  0  0  0  0  0  0
    7.0900   13.9700   49.1900 C   0  0  0  0  0  0  0  0  0  0  0  0
    6.3600   13.2400   48.7700 H   0  0  0  0  0  0  0  0  0  0  0  0
    7.7800   13.4300   49.8800 H   0  0  0  0  0  0  0  0  0  0  0  0
    7.8900   14.5700   48.0300 C   0  0  0  0  0  0  0  0  0  0  0  0
    8.6100   15.3100   48.4300 H   0  0  0  0  0  0  0  0  0  0  0  0
    7.2000   15.1500   47.3800 H   0  0  0  0  0  0  0  0  0  0  0  0
    8.6100   13.4800   47.2900 C   0  0  0  0  0  0  0  0  0  0  0  0
    9.5500   13.1200   47.7400 H   0  0  0  0  0  0  0  0  0  0  0  0
    8.2400   13.0200   46.0900 C   0  0  0  0  0  0  0  0  0  0  0  0
    8.8500   12.2600   45.5700 H   0  0  0  0  0  0  0  0  0  0  0  0
    7.0600   13.5700   45.3500 C   0  0  0  0  0  0  0  0  0  0  0  0
    7.3400   14.5700   44.9300 H   0  0  0  0  0  0  0  0  0  0  0  0
    6.1900   13.7600   46.0300 H   0  0  0  0  0  0  0  0  0  0  0  0
    6.5800   12.7200   44.1900 C   0  0  0  0  0  0  0  0  0  0  0  0
    5.6900   12.1200   44.5100 H   0  0  0  0  0  0  0  0  0  0  0  0
    7.3500   12.0200   43.8100 H   0  0  0  0  0  0  0  0  0  0  0  0
    6.1800   13.6300   43.0400 C   0  0  0  0  0  0  0  0  0  0  0  0
    7.1000   14.0500   42.5600 H   0  0  0  0  0  0  0  0  0  0  0  0
    5.5600   14.4800   43.4000 H   0  0  0  0  0  0  0  0  0  0  0  0
    5.4400   12.8500   41.9800 C   0  0  0  0  0  0  0  0  0  0  0  0
    4.3800   12.6800   42.2700 H   0  0  0  0  0  0  0  0  0  0  0  0
    5.9200   11.8600   41.8800 H   0  0  0  0  0  0  0  0  0  0  0  0
    5.5400   13.6500   40.7000 C   0  0  0  0  0  0  0  0  0  0  0  0
    4.8500   13.1900   39.9700 H   0  0  0  0  0  0  0  0  0  0  0  0
    6.5500   13.7100   40.2500 H   0  0  0  0  0  0  0  0  0  0  0  0
    5.0300   15.0400   40.8900 C   0  0  0  0  0  0  0  0  0  0  0  0
    5.4300   15.6900   41.6700 H   0  0  0  0  0  0  0  0  0  0  0  0
    4.0300   14.6600   41.1700 H   0  0  0  0  0  0  0  0  0  0  0  0
    5.1100   15.6900   39.5500 C   0  0  0  0  0  0  0  0  0  0  0  0
    4.3000   15.0500   39.1700 H   0  0  0  0  0  0  0  0  0  0  0  0
    5.9600   15.4700   38.8900 H   0  0  0  0  0  0  0  0  0  0  0  0
    4.6900   17.1300   39.4400 C   0  0  0  0  0  0  0  0  0  0  0  0
    4.5300   17.8300   40.2700 H   0  0  0  0  0  0  0  0  0  0  0  0
    4.6100   17.5400   38.4100 H   0  0  0  0  0  0  0  0  0  0  0  0
    3.7200   16.7800   39.6000 H   0  0  0  0  0  0  0  0  0  0  0  0
   11.8400   14.2500   59.9100 C   0  0  0  0  0  0  0  0  0  0  0  0
   11.9500   13.1500   59.8400 H   0  0  0  0  0  0  0  0  0  0  0  0
   12.7700   14.7000   59.4700 H   0  0  0  0  0  0  0  0  0  0  0  0
   10.6000   14.6900   59.1500 C   0  0  0  0  0  0  0  0  0  0  0  0
   10.6200   15.7900   58.9700 H   0  0  0  0  0  0  0  0  0  0  0  0
    9.7100   14.4800   59.7900 H   0  0  0  0  0  0  0  0  0  0  0  0
   10.3600   13.9300   57.8400 C   0  0  0  0  0  0  0  0  0  0  0  0
    9.4500   14.3800   57.4000 H   0  0  0  0  0  0  0  0  0  0  0  0
   10.2000   12.8600   58.0800 H   0  0  0  0  0  0  0  0  0  0  0  0
   11.4500   13.9900   56.7700 C   0  0  0  0  0  0  0  0  0  0  0  0
   12.4000   13.5900   57.1800 H   0  0  0  0  0  0  0  0  0  0  0  0
   11.6200   15.0600   56.5100 H   0  0  0  0  0  0  0  0  0  0  0  0
   10.9800   13.1600   55.5500 C   0  0  0  0  0  0  0  0  0  0  0  0
    9.9800   13.5300   55.2700 H   0  0  0  0  0  0  0  0  0  0  0  0
   10.9100   12.0900   55.8500 H   0  0  0  0  0  0  0  0  0  0  0  0
   11.7800   13.3000   54.2500 C   0  0  0  0  0  0  0  0  0  0  0  0
   11.2400   12.8100   53.4200 H   0  0  0  0  0  0  0  0  0  0  0  0
   12.6800   12.6700   54.3700 H   0  0  0  0  0  0  0  0  0  0  0  0
   11.9700   14.8000   53.9200 C   0  0  0  0  0  0  0  0  0  0  0  0
   12.5900   15.3000   54.6900 H   0  0  0  0  0  0  0  0  0  0  0  0
   10.9600   15.2600   53.9500 H   0  0  0  0  0  0  0  0  0  0  0  0
   12.5600   15.1900   52.5500 C   0  0  0  0  0  0  0  0  0  0  0  0
   13.6300   15.0100   52.5500 H   0  0  0  0  0  0  0  0  0  0  0  0
   12.5400   16.3000   52.5100 H   0  0  0  0  0  0  0  0  0  0  0  0
   11.8500   14.5400   51.3500 C   0  0  0  0  0  0  0  0  0  0  0  0
   10.7700   14.7900   51.4400 H   0  0  0  0  0  0  0  0  0  0  0  0
   11.9900   13.4400   51.4000 H   0  0  0  0  0  0  0  0  0  0  0  0
   12.3100   14.9900   49.9500 C   0  0  0  0  0  0  0  0  0  0  0  0
   11.8600   14.4000   49.1300 H   0  0  0  0  0  0  0  0  0  0  0  0
   13.4200   14.8700   49.8900 H   0  0  0  0  0  0  0  0  0  0  0  0
   12.0000   16.4600   49.6900 C   0  0  0  0  0  0  0  0  0  0  0  0
   12.5600   16.7800   48.7900 H   0  0  0  0  0  0  0  0  0  0  0  0
   12.4900   16.8200   50.6000 H   0  0  0  0  0  0  0  0  0  0  0  0
   10.5600   17.0700   49.7400 C   0  0  0  0  0  0  0  0  0  0  0  0
   10.1500   16.8300   50.7300 H   0  0  0  0  0  0  0  0  0  0  0  0
   10.0200   16.4900   48.9900 H   0  0  0  0  0  0  0  0  0  0  0  0
   10.3500   18.5800   49.4800 C   0  0  0  0  0  0  0  0  0  0  0  0
   10.8300   19.2400   50.2200 H   0  0  0  0  0  0  0  0  0  0  0  0
    9.6300   19.2300   48.5600 C   0  0  0  0  0  0  0  0  0  0  0  0
    9.7100   20.3300   48.5000 H   0  0  0  0  0  0  0  0  0  0  0  0
    8.8000   18.5900   47.5000 C   0  0  0  0  0  0  0  0  0  0  0  0
    7.9400   19.2500   47.3100 H   0  0  0  0  0  0  0  0  0  0  0  0
    8.3800   17.6400   47.8900 H   0  0  0  0  0  0  0  0  0  0  0  0
    9.5400   18.2900   46.1800 C   0  0  0  0  0  0  0  0  0  0  0  0
   10.2300   19.1200   45.9100 H   0  0  0  0  0  0  0  0  0  0  0  0
    8.7700   18.2400   45.3800 H   0  0  0  0  0  0  0  0  0  0  0  0
   10.2800   16.9400   46.2600 C   0  0  0  0  0  0  0  0  0  0  0  0
    9.8100   16.3700   47.0700 H   0  0  0  0  0  0  0  0  0  0  0  0
   11.3100   17.1000   46.6100 H   0  0  0  0  0  0  0  0  0  0  0  0
   10.1000   15.9400   45.0900 C   0  0  0  0  0  0  0  0  0  0  0  0
   10.2300   16.2800   44.0700 H   0  0  0  0  0  0  0  0  0  0  0  0
    9.0400   15.6700   45.0600 H   0  0  0  0  0  0  0  0  0  0  0  0
   11.0900   14.7700   45.1600 C   0  0  0  0  0  0  0  0  0  0  0  0
   10.6900   14.0200   45.8600 H   0  0  0  0  0  0  0  0  0  0  0  0
   12.0600   15.1300   45.5800 H   0  0  0  0  0  0  0  0  0  0  0  0
   11.3700   14.1000   43.8000 C   0  0  0  0  0  0  0  0  0  0  0  0
   11.9500   13.1700   43.9500 H   0  0  0  0  0  0  0  0  0  0  0  0
   12.0400   14.7500   43.2200 H   0  0  0  0  0  0  0  0  0  0  0  0
   10.1000   13.8400   42.9600 C   0  0  0  0  0  0  0  0  0  0  0  0
    9.6600   14.8000   42.6400 H   0  0  0  0  0  0  0  0  0  0  0  0
    9.3700   13.3600   43.6500 H   0  0  0  0  0  0  0  0  0  0  0  0
   10.2700   12.9300   41.7400 C   0  0  0  0  0  0  0  0  0  0  0  0
   10.4600   11.8900   42.0600 H   0  0  0  0  0  0  0  0  0  0  0  0
    9.3400   12.9400   41.1300 H   0  0  0  0  0  0  0  0  0  0  0  0
   11.1100   13.2700   41.0900 H   0  0  0  0  0  0  0  0  0  0  0  0
  1  6  1  6  0  0  0
  1  3  1  0  0  0  0
  2  1  2  0  0  0  0
  4  5  1  0  0  0  0
  4  1  1  0  0  0  0
  6  7  1  0  0  0  0
  7  8  1  0  0  0  0
  7  9  1  0  0  0  0
 10 11  1  1  0  0  0
 10  7  1  0  0  0  0
 12 10  1  0  0  0  0
 13 14  2  0  0  0  0
 13 12  1  0  0  0  0
 15 17  1  0  0  0  0
 15 13  1  0  0  0  0
 16 15  1  0  0  0  0
 18 10  1  0  0  0  0
 18 19  1  0  0  0  0
 20 18  1  0  0  0  0
 21 18  1  0  0  0  0
 22 23  2  0  0  0  0
 22 21  1  0  0  0  0
 24 22  1  0  0  0  0
 24 25  1  0  0  0  0
 24 26  1  0  0  0  0
 27 29  1  0  0  0  0
 27 15  1  0  0  0  0
 28 27  1  0  0  0  0
 30 31  1  0  0  0  0
 30 27  1  0  0  0  0
 32 30  1  0  0  0  0
 33 34  1  0  0  0  0
 33 30  1  0  0  0  0
 35 33  1  0  0  0  0
 36 38  1  0  0  0  0
 36 33  1  0  0  0  0
 37 36  1  0  0  0  0
 39 41  1  0  0  0  0
 39 36  1  0  0  0  0
 40 39  1  0  0  0  0
 42 44  1  0  0  0  0
 42 39  1  0  0  0  0
 43 42  1  0  0  0  0
 45 42  1  0  0  0  0
 45 47  1  0  0  0  0
 46 45  1  0  0  0  0
 48 45  1  0  0  0  0
 48 50  1  0  0  0  0
 49 48  1  0  0  0  0
 51 52  1  0  0  0  0
 51 48  1  0  0  0  0
 53 51  1  0  0  0  0
 54 56  1  0  0  0  0
 54 51  1  0  0  0  0
 55 54  1  0  0  0  0
 57 59  1  0  0  0  0
 57 54  1  0  0  0  0
 58 57  1  0  0  0  0
 60 61  1  0  0  0  0
 60 57  1  0  0  0  0
 62 60  1  0  0  0  0
 63 64  1  0  0  0  0
 63 60  1  0  0  0  0
 65 63  2  0  0  0  0
 66 65  1  0  0  0  0
 67 69  1  0  0  0  0
 67 65  1  0  0  0  0
 68 67  1  0  0  0  0
 70 71  1  0  0  0  0
 70 67  1  0  0  0  0
 72 70  1  0  0  0  0
 73 75  1  0  0  0  0
 73 70  1  0  0  0  0
 74 73  1  0  0  0  0
 76 77  1  0  0  0  0
 76 73  1  0  0  0  0
 78 76  1  0  0  0  0
 79 82  1  0  0  0  0
 79 76  1  0  0  0  0
 80 79  1  0  0  0  0
 81 79  1  0  0  0  0
 82 84  1  0  0  0  0
 82 83  1  0  0  0  0
 85 82  1  0  0  0  0
 86 85  1  0  0  0  0
 87 85  1  0  0  0  0
 88 85  1  0  0  0  0
 88 91  1  0  0  0  0
 88 89  1  0  0  0  0
 90 88  1  0  0  0  0
 92 24  1  0  0  0  0
 93 92  1  0  0  0  0
 94 92  1  0  0  0  0
 95 97  1  0  0  0  0
 95 92  1  0  0  0  0
 96 95  1  0  0  0  0
 98100  1  0  0  0  0
 98 95  1  0  0  0  0
 99 98  1  0  0  0  0
101102  1  0  0  0  0
101 98  1  0  0  0  0
103101  1  0  0  0  0
104106  1  0  0  0  0
104101  1  0  0  0  0
105104  1  0  0  0  0
107109  1  0  0  0  0
107104  1  0  0  0  0
108107  1  0  0  0  0
110112  1  0  0  0  0
110107  1  0  0  0  0
110111  1  0  0  0  0
113114  1  0  0  0  0
113110  1  0  0  0  0
115113  1  0  0  0  0
116118  1  0  0  0  0
116117  1  0  0  0  0
116113  1  0  0  0  0
119116  1  0  0  0  0
120119  1  0  0  0  0
121119  1  0  0  0  0
122125  1  0  0  0  0
122119  1  0  0  0  0
122124  1  0  0  0  0
123122  1  0  0  0  0
125126  1  0  0  0  0
127125  1  0  0  0  0
128125  1  0  0  0  0
128129  1  0  0  0  0
130128  2  0  0  0  0
131130  1  0  0  0  0
132134  1  0  0  0  0
132130  1  0  0  0  0
133132  1  0  0  0  0
135138  1  0  0  0  0
135132  1  0  0  0  0
136135  1  0  0  0  0
137135  1  0  0  0  0
138140  1  0  0  0  0
138139  1  0  0  0  0
141144  1  0  0  0  0
141138  1  0  0  0  0
142141  1  0  0  0  0
143141  1  0  0  0  0
144146  1  0  0  0  0
144145  1  0  0  0  0
147148  1  0  0  0  0
147144  1  0  0  0  0
149147  1  0  0  0  0
150152  1  0  0  0  0
150147  1  0  0  0  0
151150  1  0  0  0  0
153154  1  0  0  0  0
153150  1  0  0  0  0
155153  1  0  0  0  0
156153  1  0  0  0  0
M  END
