TMCL1
 OpenBabel02161614153D

209206  0  0  1  0  0  0  0  0999 V2000
   39.5600   31.6200   57.7300 C   0  0  0  0  0  0  0  0  0  0  0  0
   38.6500   31.4700   57.1100 H   0  0  0  0  0  0  0  0  0  0  0  0
   39.3700   32.5100   58.3700 H   0  0  0  0  0  0  0  0  0  0  0  0
   40.9000   33.0700   56.0300 P   0  0  2  0  0  0  0  0  0  0  0  0
   41.8600   32.8700   54.9200 O   0  0  0  0  0  0  0  0  0  0  0  0
   41.1200   34.2200   56.9600 O   0  0  0  0  0  0  0  0  0  0  0  0
   40.7200   31.8100   56.9200 O   0  0  0  0  0  0  0  0  0  0  0  0
   39.4400   33.1200   55.4000 O   0  0  0  0  0  0  0  0  0  0  0  0
   38.6200   34.2600   55.5500 C   0  0  0  0  0  0  0  0  0  0  0  0
   38.1400   34.4200   56.5300 H   0  0  0  0  0  0  0  0  0  0  0  0
   39.2900   35.0300   55.6600 H   0  0  0  0  0  0  0  0  0  0  0  0
   39.8500   30.4200   58.6500 C   0  0  1  0  0  0  0  0  0  0  0  0
   40.2000   29.6100   57.9500 H   0  0  0  0  0  0  0  0  0  0  0  0
   40.9000   30.8400   59.5600 O   0  0  0  0  0  0  0  0  0  0  0  0
   41.2800   30.0500   59.9200 H   0  0  0  0  0  0  0  0  0  0  0  0
   38.6000   29.8100   59.3900 C   0  0  0  0  0  0  0  0  0  0  0  0
   38.2800   30.5100   60.1900 H   0  0  0  0  0  0  0  0  0  0  0  0
   38.8900   28.8800   59.9300 H   0  0  0  0  0  0  0  0  0  0  0  0
   37.1600   28.2000   57.9400 P   0  0  1  0  0  0  0  0  0  0  0  0
   35.9900   27.5600   58.7800 O   0  0  0  0  0  0  0  0  0  0  0  0
   36.0100   27.7400   59.7100 H   0  0  0  0  0  0  0  0  0  0  0  0
   36.7600   28.1800   56.5300 O   0  0  0  0  0  0  0  0  0  0  0  0
   37.5200   29.6200   58.4700 O   0  0  0  0  0  0  0  0  0  0  0  0
   38.4600   27.3400   58.1600 O   0  0  0  0  0  0  0  0  0  0  0  0
   38.7400   26.1600   57.4200 C   0  0  0  0  0  0  0  0  0  0  0  0
   37.8300   25.6900   56.9800 H   0  0  0  0  0  0  0  0  0  0  0  0
   39.2000   25.4000   58.1000 H   0  0  0  0  0  0  0  0  0  0  0  0
   39.7500   26.4400   56.2700 C   0  0  2  0  0  0  0  0  0  0  0  0
   40.7200   26.7700   56.6800 H   0  0  0  0  0  0  0  0  0  0  0  0
   39.1400   27.2900   55.2800 O   0  0  0  0  0  0  0  0  0  0  0  0
   39.9000   28.3200   54.9500 C   0  0  0  0  0  0  0  0  0  0  0  0
   41.0100   28.5400   55.4100 O   0  0  0  0  0  0  0  0  0  0  0  0
   39.2000   29.1500   53.8600 C   0  0  0  0  0  0  0  0  0  0  0  0
   38.3600   29.6800   54.3500 H   0  0  0  0  0  0  0  0  0  0  0  0
   38.7500   28.4200   53.1500 H   0  0  0  0  0  0  0  0  0  0  0  0
   40.1700   25.1700   55.5900 C   0  0  0  0  0  0  0  0  0  0  0  0
   39.1300   24.8100   55.2200 H   0  0  0  0  0  0  0  0  0  0  0  0
   40.4200   24.4100   56.3100 H   0  0  0  0  0  0  0  0  0  0  0  0
   41.4500   25.4100   54.8100 O   0  0  0  0  0  0  0  0  0  0  0  0
   41.1200   25.1400   53.5900 C   0  0  0  0  0  0  0  0  0  0  0  0
   39.9600   24.8400   53.4000 O   0  0  0  0  0  0  0  0  0  0  0  0
   42.3300   25.1700   52.4600 C   0  0  0  0  0  0  0  0  0  0  0  0
   42.9400   24.3200   52.8100 H   0  0  0  0  0  0  0  0  0  0  0  0
   42.7900   26.1200   52.6200 H   0  0  0  0  0  0  0  0  0  0  0  0
   37.5800   34.4300   54.4200 C   0  0  2  0  0  0  0  0  0  0  0  0
   36.9200   35.2900   54.7200 H   0  0  0  0  0  0  0  0  0  0  0  0
   36.9100   33.1900   54.3600 O   0  0  0  0  0  0  0  0  0  0  0  0
   36.2000   32.8500   55.4400 C   0  0  0  0  0  0  0  0  0  0  0  0
   35.7200   33.6400   56.2400 O   0  0  0  0  0  0  0  0  0  0  0  0
   35.8400   31.3500   55.2900 C   0  0  0  0  0  0  0  0  0  0  0  0
   34.9200   31.1200   55.8500 H   0  0  0  0  0  0  0  0  0  0  0  0
   36.7400   30.8100   55.5800 H   0  0  0  0  0  0  0  0  0  0  0  0
   38.1500   34.7800   53.0000 C   0  0  0  0  0  0  0  0  0  0  0  0
   38.9500   35.5500   52.9500 H   0  0  0  0  0  0  0  0  0  0  0  0
   38.6600   33.8800   52.6600 H   0  0  0  0  0  0  0  0  0  0  0  0
   37.0800   35.1800   52.1400 O   0  0  0  0  0  0  0  0  0  0  0  0
   37.4500   35.5400   50.8900 C   0  0  0  0  0  0  0  0  0  0  0  0
   38.5600   35.7500   50.4900 O   0  0  0  0  0  0  0  0  0  0  0  0
   36.2800   35.7500   49.9700 C   0  0  0  0  0  0  0  0  0  0  0  0
   36.4900   35.9900   48.9300 H   0  0  0  0  0  0  0  0  0  0  0  0
   35.4700   36.4400   50.3700 H   0  0  0  0  0  0  0  0  0  0  0  0
   40.1700   30.1400   53.1500 C   0  0  0  0  0  0  0  0  0  0  0  0
   41.0800   29.5800   52.8500 H   0  0  0  0  0  0  0  0  0  0  0  0
   40.4800   30.9600   53.8400 H   0  0  0  0  0  0  0  0  0  0  0  0
   39.6100   30.7900   51.8800 C   0  0  0  0  0  0  0  0  0  0  0  0
   38.7200   31.4100   52.1200 H   0  0  0  0  0  0  0  0  0  0  0  0
   39.3000   29.9600   51.2100 H   0  0  0  0  0  0  0  0  0  0  0  0
   40.6200   31.6800   51.1400 C   0  0  0  0  0  0  0  0  0  0  0  0
   41.4600   31.0500   50.7900 H   0  0  0  0  0  0  0  0  0  0  0  0
   41.0500   32.4900   51.7800 H   0  0  0  0  0  0  0  0  0  0  0  0
   39.9300   32.3300   49.9400 C   0  0  0  0  0  0  0  0  0  0  0  0
   39.2300   33.1100   50.3200 H   0  0  0  0  0  0  0  0  0  0  0  0
   39.3000   31.5300   49.4700 H   0  0  0  0  0  0  0  0  0  0  0  0
   40.9500   32.9100   48.9500 C   0  0  0  0  0  0  0  0  0  0  0  0
   41.5900   32.0500   48.6200 H   0  0  0  0  0  0  0  0  0  0  0  0
   41.6000   33.6900   49.4100 H   0  0  0  0  0  0  0  0  0  0  0  0
   40.3600   33.5800   47.7300 C   0  0  0  0  0  0  0  0  0  0  0  0
   39.8500   34.5200   48.0600 H   0  0  0  0  0  0  0  0  0  0  0  0
   39.5700   32.8900   47.3500 H   0  0  0  0  0  0  0  0  0  0  0  0
   41.4400   33.9000   46.6400 C   0  0  0  0  0  0  0  0  0  0  0  0
   42.0900   33.0300   46.4800 H   0  0  0  0  0  0  0  0  0  0  0  0
   42.0400   34.7900   46.9500 H   0  0  0  0  0  0  0  0  0  0  0  0
   40.8400   34.1900   45.3000 C   0  0  0  0  0  0  0  0  0  0  0  0
   40.5400   33.3200   44.6800 H   0  0  0  0  0  0  0  0  0  0  0  0
   41.4000   34.8800   44.6000 H   0  0  0  0  0  0  0  0  0  0  0  0
   39.6100   34.8000   45.7900 C   0  0  0  0  0  0  0  0  0  0  0  0
   39.7800   35.7100   46.4800 H   0  0  0  0  0  0  0  0  0  0  0  0
   38.6900   34.1600   45.9800 H   0  0  0  0  0  0  0  0  0  0  0  0
   39.1700   35.3100   44.6700 C   0  0  0  0  0  0  0  0  0  0  0  0
   39.9300   36.0200   44.1500 H   0  0  0  0  0  0  0  0  0  0  0  0
   38.4300   35.8900   45.4600 H   0  0  0  0  0  0  0  0  0  0  0  0
   38.5900   34.2600   43.5300 C   0  0  0  0  0  0  0  0  0  0  0  0
   38.2300   33.3200   43.8900 H   0  0  0  0  0  0  0  0  0  0  0  0
   39.3200   34.2900   42.6600 H   0  0  0  0  0  0  0  0  0  0  0  0
   37.1400   34.0900   42.9000 C   0  0  0  0  0  0  0  0  0  0  0  0
   36.8600   33.8000   41.8600 H   0  0  0  0  0  0  0  0  0  0  0  0
   37.6700   34.9900   42.7900 H   0  0  0  0  0  0  0  0  0  0  0  0
   36.1500   34.5000   43.1900 H   0  0  0  0  0  0  0  0  0  0  0  0
   42.2900   25.1100   50.8300 C   0  0  0  0  0  0  0  0  0  0  0  0
   42.0900   24.1000   50.4500 H   0  0  0  0  0  0  0  0  0  0  0  0
   42.8600   24.5100   50.2000 H   0  0  0  0  0  0  0  0  0  0  0  0
   41.4100   26.1600   50.1400 C   0  0  0  0  0  0  0  0  0  0  0  0
   42.0300   27.0200   50.2300 H   0  0  0  0  0  0  0  0  0  0  0  0
   40.4500   26.3100   50.6800 H   0  0  0  0  0  0  0  0  0  0  0  0
   41.1400   26.1400   48.6400 C   0  0  0  0  0  0  0  0  0  0  0  0
   40.0900   25.8800   48.3900 H   0  0  0  0  0  0  0  0  0  0  0  0
   41.8000   25.4900   48.0600 H   0  0  0  0  0  0  0  0  0  0  0  0
   40.6400   27.2800   47.9600 C   0  0  0  0  0  0  0  0  0  0  0  0
   40.2900   27.0500   46.9700 H   0  0  0  0  0  0  0  0  0  0  0  0
   41.6400   27.6200   47.7500 H   0  0  0  0  0  0  0  0  0  0  0  0
   39.4000   27.7900   48.6900 C   0  0  0  0  0  0  0  0  0  0  0  0
   39.8000   28.0800   49.6700 H   0  0  0  0  0  0  0  0  0  0  0  0
   38.6000   27.0200   48.8900 H   0  0  0  0  0  0  0  0  0  0  0  0
   38.7800   28.9300   47.9200 C   0  0  0  0  0  0  0  0  0  0  0  0
   39.6200   29.6500   47.8300 H   0  0  0  0  0  0  0  0  0  0  0  0
   37.9900   29.3500   48.5600 H   0  0  0  0  0  0  0  0  0  0  0  0
   38.2300   28.6200   46.5000 C   0  0  0  0  0  0  0  0  0  0  0  0
   38.9200   27.9900   45.9200 H   0  0  0  0  0  0  0  0  0  0  0  0
   38.0600   29.5300   45.9100 H   0  0  0  0  0  0  0  0  0  0  0  0
   36.9100   27.9200   46.5500 C   0  0  0  0  0  0  0  0  0  0  0  0
   36.1800   28.5700   47.0500 H   0  0  0  0  0  0  0  0  0  0  0  0
   37.1400   27.0800   47.2200 H   0  0  0  0  0  0  0  0  0  0  0  0
   36.3600   27.4400   45.2000 C   0  0  0  0  0  0  0  0  0  0  0  0
   36.3100   28.2700   44.5200 H   0  0  0  0  0  0  0  0  0  0  0  0
   35.3300   27.0500   45.0500 H   0  0  0  0  0  0  0  0  0  0  0  0
   37.1900   26.3400   44.7500 C   0  0  0  0  0  0  0  0  0  0  0  0
   37.1100   25.5800   45.5700 H   0  0  0  0  0  0  0  0  0  0  0  0
   38.2000   26.6300   44.4500 H   0  0  0  0  0  0  0  0  0  0  0  0
   36.6500   25.6100   43.6800 C   0  0  0  0  0  0  0  0  0  0  0  0
   36.0000   24.9400   44.3000 H   0  0  0  0  0  0  0  0  0  0  0  0
   37.3300   24.7900   43.4600 H   0  0  0  0  0  0  0  0  0  0  0  0
   35.9400   26.4000   42.5400 C   0  0  0  0  0  0  0  0  0  0  0  0
   34.8800   26.6400   42.7700 H   0  0  0  0  0  0  0  0  0  0  0  0
   35.7300   25.7900   41.6800 H   0  0  0  0  0  0  0  0  0  0  0  0
   36.4700   26.9000   41.7500 H   0  0  0  0  0  0  0  0  0  0  0  0
   35.7000   30.8300   53.8700 C   0  0  0  0  0  0  0  0  0  0  0  0
   36.5300   31.0700   53.1900 H   0  0  0  0  0  0  0  0  0  0  0  0
   34.6700   31.1000   53.6700 H   0  0  0  0  0  0  0  0  0  0  0  0
   35.3700   29.5000   53.4300 C   0  0  0  0  0  0  0  0  0  0  0  0
   35.8900   29.1800   52.5100 H   0  0  0  0  0  0  0  0  0  0  0  0
   35.6800   28.9400   54.3400 H   0  0  0  0  0  0  0  0  0  0  0  0
   33.8900   29.3900   53.0400 C   0  0  0  0  0  0  0  0  0  0  0  0
   33.3600   29.7100   53.9900 H   0  0  0  0  0  0  0  0  0  0  0  0
   33.8300   28.3200   52.6500 H   0  0  0  0  0  0  0  0  0  0  0  0
   33.0800   29.5200   51.8300 C   0  0  0  0  0  0  0  0  0  0  0  0
   33.7800   29.2400   51.0300 H   0  0  0  0  0  0  0  0  0  0  0  0
   32.8900   30.5200   52.0000 H   0  0  0  0  0  0  0  0  0  0  0  0
   31.7000   28.8600   51.7800 C   0  0  0  0  0  0  0  0  0  0  0  0
   31.0800   28.9800   52.7000 H   0  0  0  0  0  0  0  0  0  0  0  0
   31.9300   27.8100   51.6100 H   0  0  0  0  0  0  0  0  0  0  0  0
   30.8300   29.4100   50.6600 C   0  0  0  0  0  0  0  0  0  0  0  0
   30.8900   30.4900   50.6100 H   0  0  0  0  0  0  0  0  0  0  0  0
   29.7800   29.0500   50.8300 H   0  0  0  0  0  0  0  0  0  0  0  0
   31.2500   28.9800   49.3000 C   0  0  0  0  0  0  0  0  0  0  0  0
   30.5800   29.1100   48.4800 H   0  0  0  0  0  0  0  0  0  0  0  0
   31.2100   27.9500   49.6400 H   0  0  0  0  0  0  0  0  0  0  0  0
   32.4500   29.6300   48.6200 C   0  0  0  0  0  0  0  0  0  0  0  0
   33.4200   29.5300   49.1500 H   0  0  0  0  0  0  0  0  0  0  0  0
   32.0700   30.5700   48.8100 H   0  0  0  0  0  0  0  0  0  0  0  0
   32.6700   29.5200   47.0800 C   0  0  0  0  0  0  0  0  0  0  0  0
   32.4700   28.4700   46.8500 H   0  0  0  0  0  0  0  0  0  0  0  0
   33.7000   29.8100   46.7900 H   0  0  0  0  0  0  0  0  0  0  0  0
   31.7600   29.7600   45.9700 C   0  0  0  0  0  0  0  0  0  0  0  0
   31.4200   30.7800   46.1900 H   0  0  0  0  0  0  0  0  0  0  0  0
   30.9600   28.9900   46.0100 H   0  0  0  0  0  0  0  0  0  0  0  0
   32.3900   29.6300   44.6000 C   0  0  0  0  0  0  0  0  0  0  0  0
   32.5300   28.5500   44.3600 H   0  0  0  0  0  0  0  0  0  0  0  0
   33.3600   30.1400   44.5600 H   0  0  0  0  0  0  0  0  0  0  0  0
   31.4500   30.2500   43.6100 C   0  0  0  0  0  0  0  0  0  0  0  0
   31.6800   30.0000   42.5700 H   0  0  0  0  0  0  0  0  0  0  0  0
   31.2500   31.3300   43.7900 H   0  0  0  0  0  0  0  0  0  0  0  0
   30.5400   29.7200   43.8200 H   0  0  0  0  0  0  0  0  0  0  0  0
   35.8200   34.4600   49.8700 C   0  0  0  0  0  0  0  0  0  0  0  0
   34.9000   34.9400   49.4400 H   0  0  0  0  0  0  0  0  0  0  0  0
   35.6600   34.2000   50.9100 H   0  0  0  0  0  0  0  0  0  0  0  0
   36.2600   33.3200   48.9500 C   0  0  0  0  0  0  0  0  0  0  0  0
   35.8800   32.3100   49.2500 H   0  0  0  0  0  0  0  0  0  0  0  0
   37.3300   33.2500   49.1100 H   0  0  0  0  0  0  0  0  0  0  0  0
   35.7400   33.4700   47.5200 C   0  0  0  0  0  0  0  0  0  0  0  0
   36.0300   34.4600   47.1500 H   0  0  0  0  0  0  0  0  0  0  0  0
   34.6600   33.4400   47.3300 H   0  0  0  0  0  0  0  0  0  0  0  0
   36.0100   32.2100   46.7200 C   0  0  0  0  0  0  0  0  0  0  0  0
   35.3900   31.3800   47.1500 H   0  0  0  0  0  0  0  0  0  0  0  0
   37.0700   31.9300   46.8400 H   0  0  0  0  0  0  0  0  0  0  0  0
   35.5700   32.3100   45.2600 C   0  0  0  0  0  0  0  0  0  0  0  0
   36.0100   33.2100   44.8000 H   0  0  0  0  0  0  0  0  0  0  0  0
   34.4700   32.4300   45.2000 H   0  0  0  0  0  0  0  0  0  0  0  0
   35.9600   31.0300   44.5200 C   0  0  0  0  0  0  0  0  0  0  0  0
   35.3900   30.2100   45.0200 H   0  0  0  0  0  0  0  0  0  0  0  0
   37.0200   30.7700   44.6800 H   0  0  0  0  0  0  0  0  0  0  0  0
   35.7000   31.0900   43.0100 C   0  0  0  0  0  0  0  0  0  0  0  0
   36.0400   32.0600   42.6200 H   0  0  0  0  0  0  0  0  0  0  0  0
   34.6300   31.0600   42.7600 H   0  0  0  0  0  0  0  0  0  0  0  0
   36.4400   30.0300   42.1900 C   0  0  0  0  0  0  0  0  0  0  0  0
   36.0200   30.0700   41.1600 H   0  0  0  0  0  0  0  0  0  0  0  0
   36.2900   28.9900   42.5300 H   0  0  0  0  0  0  0  0  0  0  0  0
   37.9100   30.3900   42.1200 C   0  0  0  0  0  0  0  0  0  0  0  0
   38.4200   30.4000   43.1200 H   0  0  0  0  0  0  0  0  0  0  0  0
   37.9100   31.4200   41.7100 H   0  0  0  0  0  0  0  0  0  0  0  0
   38.6800   29.5600   41.1400 C   0  0  0  0  0  0  0  0  0  0  0  0
   38.0800   29.4600   40.2000 H   0  0  0  0  0  0  0  0  0  0  0  0
   38.8500   28.5400   41.5600 H   0  0  0  0  0  0  0  0  0  0  0  0
   40.0300   30.2000   40.9400 C   0  0  0  0  0  0  0  0  0  0  0  0
   40.6200   29.4600   40.5000 H   0  0  0  0  0  0  0  0  0  0  0  0
   40.6100   30.2900   41.8600 H   0  0  0  0  0  0  0  0  0  0  0  0
   40.0800   31.5200   40.2100 C   0  0  0  0  0  0  0  0  0  0  0  0
   39.2900   32.2100   40.4700 H   0  0  0  0  0  0  0  0  0  0  0  0
   39.8000   31.4000   39.2100 H   0  0  0  0  0  0  0  0  0  0  0  0
   41.0800   31.9900   40.1700 H   0  0  0  0  0  0  0  0  0  0  0  0
  1  3  1  0  0  0  0
  1 12  1  0  0  0  0
  2  1  1  0  0  0  0
  4  5  2  6  0  0  0
  4  7  1  0  0  0  0
  4  6  1  0  0  0  0
  7  1  1  0  0  0  0
  8  9  1  0  0  0  0
  8  4  1  0  0  0  0
  9 11  1  0  0  0  0
  9 10  1  0  0  0  0
 12 13  1  6  0  0  0
 12 16  1  0  0  0  0
 12 14  1  0  0  0  0
 14 15  1  0  0  0  0
 16 18  1  0  0  0  0
 16 17  1  0  0  0  0
 19 22  2  6  0  0  0
 19 24  1  0  0  0  0
 19 23  1  0  0  0  0
 19 20  1  0  0  0  0
 20 21  1  0  0  0  0
 23 16  1  0  0  0  0
 25 27  1  0  0  0  0
 25 24  1  0  0  0  0
 26 25  1  0  0  0  0
 28 29  1  1  0  0  0
 28 25  1  0  0  0  0
 30 28  1  0  0  0  0
 31 30  1  0  0  0  0
 31 32  2  0  0  0  0
 33 34  1  0  0  0  0
 33 31  1  0  0  0  0
 35 33  1  0  0  0  0
 36 28  1  0  0  0  0
 36 38  1  0  0  0  0
 37 36  1  0  0  0  0
 39 36  1  0  0  0  0
 40 39  1  0  0  0  0
 41 40  2  0  0  0  0
 42 44  1  0  0  0  0
 42 43  1  0  0  0  0
 42 40  1  0  0  0  0
 45 46  1  1  0  0  0
 45  9  1  0  0  0  0
 47 45  1  0  0  0  0
 47 48  1  0  0  0  0
 48 49  2  0  0  0  0
 50 48  1  0  0  0  0
 50 52  1  0  0  0  0
 50 51  1  0  0  0  0
 53 45  1  0  0  0  0
 54 53  1  0  0  0  0
 55 53  1  0  0  0  0
 56 53  1  0  0  0  0
 57 56  1  0  0  0  0
 58 57  2  0  0  0  0
 59 61  1  0  0  0  0
 59 57  1  0  0  0  0
 60 59  1  0  0  0  0
 62 64  1  0  0  0  0
 62 33  1  0  0  0  0
 63 62  1  0  0  0  0
 65 66  1  0  0  0  0
 65 62  1  0  0  0  0
 67 65  1  0  0  0  0
 68 70  1  0  0  0  0
 68 65  1  0  0  0  0
 69 68  1  0  0  0  0
 71 72  1  0  0  0  0
 71 68  1  0  0  0  0
 73 71  1  0  0  0  0
 74 76  1  0  0  0  0
 74 71  1  0  0  0  0
 75 74  1  0  0  0  0
 77 78  1  0  0  0  0
 77 74  1  0  0  0  0
 79 77  1  0  0  0  0
 80 82  1  0  0  0  0
 80 77  1  0  0  0  0
 81 80  1  0  0  0  0
 83 86  1  0  0  0  0
 83 80  1  0  0  0  0
 84 83  1  0  0  0  0
 85 83  1  0  0  0  0
 86 88  1  0  0  0  0
 86 87  1  0  0  0  0
 89 91  1  0  0  0  0
 89 86  1  0  0  0  0
 90 89  1  0  0  0  0
 92 93  1  0  0  0  0
 94 92  1  0  0  0  0
 95 98  1  0  0  0  0
 96 95  1  0  0  0  0
 97 95  1  0  0  0  0
 99 42  1  0  0  0  0
100 99  1  0  0  0  0
101 99  1  0  0  0  0
102103  1  0  0  0  0
102104  1  0  0  0  0
102 99  1  0  0  0  0
105102  1  0  0  0  0
106105  1  0  0  0  0
107105  1  0  0  0  0
108105  1  0  0  0  0
108111  1  0  0  0  0
109108  1  0  0  0  0
110108  1  0  0  0  0
111113  1  0  0  0  0
111112  1  0  0  0  0
114116  1  0  0  0  0
114111  1  0  0  0  0
115114  1  0  0  0  0
117120  1  0  0  0  0
117114  1  0  0  0  0
118117  1  0  0  0  0
119117  1  0  0  0  0
120121  1  0  0  0  0
120122  1  0  0  0  0
123120  1  0  0  0  0
124123  1  0  0  0  0
125123  1  0  0  0  0
126123  1  0  0  0  0
126127  1  0  0  0  0
128126  1  0  0  0  0
129130  1  0  0  0  0
129126  1  0  0  0  0
131129  1  0  0  0  0
132133  1  0  0  0  0
132129  1  0  0  0  0
134132  1  0  0  0  0
135132  1  0  0  0  0
136 50  1  0  0  0  0
137136  1  0  0  0  0
138136  1  0  0  0  0
139136  1  0  0  0  0
139141  1  0  0  0  0
140139  1  0  0  0  0
142139  1  0  0  0  0
142143  1  0  0  0  0
144142  1  0  0  0  0
145147  1  0  0  0  0
145142  1  0  0  0  0
146145  1  0  0  0  0
148145  1  0  0  0  0
148149  1  0  0  0  0
150148  1  0  0  0  0
151153  1  0  0  0  0
151148  1  0  0  0  0
152151  1  0  0  0  0
154156  1  0  0  0  0
154151  1  0  0  0  0
155154  1  0  0  0  0
157159  1  0  0  0  0
157158  1  0  0  0  0
157154  1  0  0  0  0
160157  1  0  0  0  0
161160  1  0  0  0  0
162160  1  0  0  0  0
163165  1  0  0  0  0
163164  1  0  0  0  0
163160  1  0  0  0  0
166163  1  0  0  0  0
167166  1  0  0  0  0
168166  1  0  0  0  0
169171  1  0  0  0  0
169172  1  0  0  0  0
169166  1  0  0  0  0
170169  1  0  0  0  0
173 59  1  0  0  0  0
173175  1  0  0  0  0
174173  1  0  0  0  0
176178  1  0  0  0  0
176177  1  0  0  0  0
176173  1  0  0  0  0
179176  1  0  0  0  0
180179  1  0  0  0  0
181179  1  0  0  0  0
182184  1  0  0  0  0
182183  1  0  0  0  0
182179  1  0  0  0  0
185182  1  0  0  0  0
186185  1  0  0  0  0
187185  1  0  0  0  0
188190  1  0  0  0  0
188189  1  0  0  0  0
188185  1  0  0  0  0
191188  1  0  0  0  0
192191  1  0  0  0  0
193191  1  0  0  0  0
194196  1  0  0  0  0
194191  1  0  0  0  0
195194  1  0  0  0  0
197194  1  0  0  0  0
197198  1  0  0  0  0
199197  1  0  0  0  0
200202  1  0  0  0  0
200197  1  0  0  0  0
201200  1  0  0  0  0
203200  1  0  0  0  0
203205  1  0  0  0  0
204203  1  0  0  0  0
206207  1  0  0  0  0
206203  1  0  0  0  0
208206  1  0  0  0  0
209206  1  0  0  0  0
M  END
