LNDCL2
 OpenBabel02161614153D

238237  0  0  1  0  0  0  0  0999 V2000
   77.4900   34.0000   60.3100 C   0  0  0  0  0  0  0  0  0  0  0  0
   76.9900   34.6900   60.9900 H   0  0  0  0  0  0  0  0  0  0  0  0
   78.1200   33.2000   60.7700 H   0  0  0  0  0  0  0  0  0  0  0  0
   79.5900   35.3800   59.9600 P   0  0  2  0  0  0  0  0  0  0  0  0
   80.6500   35.0100   59.0100 O   0  0  0  0  0  0  0  0  0  0  0  0
   79.7500   35.0600   61.3900 O   0  0  0  0  0  0  0  0  0  0  0  0
   78.2700   34.7200   59.4100 O   0  0  0  0  0  0  0  0  0  0  0  0
   79.3400   36.8800   59.8600 O   0  0  0  0  0  0  0  0  0  0  0  0
   78.2700   37.5300   59.2200 C   0  0  0  0  0  0  0  0  0  0  0  0
   77.5200   37.6900   59.9800 H   0  0  0  0  0  0  0  0  0  0  0  0
   78.4800   38.5600   59.4300 H   0  0  0  0  0  0  0  0  0  0  0  0
   76.2600   33.3100   59.9000 C   0  0  1  0  0  0  0  0  0  0  0  0
   75.6700   32.8800   60.7200 H   0  0  0  0  0  0  0  0  0  0  0  0
   75.2600   34.0300   59.4000 O   0  0  0  0  0  0  0  0  0  0  0  0
   75.4000   34.8100   59.9400 H   0  0  0  0  0  0  0  0  0  0  0  0
   76.7200   32.5600   58.8300 C   0  0  0  0  0  0  0  0  0  0  0  0
   77.0100   33.3900   58.1000 H   0  0  0  0  0  0  0  0  0  0  0  0
   75.8100   31.9200   58.5400 H   0  0  0  0  0  0  0  0  0  0  0  0
   78.3800   30.5200   58.3900 P   0  0  1  0  0  0  0  0  0  0  0  0
   79.4000   29.8300   59.2200 O   0  0  0  0  0  0  0  0  0  0  0  0
   77.0500   29.9100   58.2300 O   0  0  0  0  0  0  0  0  0  0  0  0
   77.9400   31.8400   59.0600 O   0  0  0  0  0  0  0  0  0  0  0  0
   78.9600   31.0600   57.0500 O   0  0  0  0  0  0  0  0  0  0  0  0
   80.0700   31.9400   57.1100 C   0  0  0  0  0  0  0  0  0  0  0  0
   80.9800   31.3100   57.1000 H   0  0  0  0  0  0  0  0  0  0  0  0
   80.1200   32.5400   58.0600 H   0  0  0  0  0  0  0  0  0  0  0  0
   80.1100   32.9200   55.9000 C   0  0  2  0  0  0  0  0  0  0  0  0
   79.3200   33.6800   56.0600 H   0  0  0  0  0  0  0  0  0  0  0  0
   79.9200   32.2100   54.6500 O   0  0  0  0  0  0  0  0  0  0  0  0
   78.7100   31.9300   54.2600 C   0  0  0  0  0  0  0  0  0  0  0  0
   77.6900   32.5100   54.4800 O   0  0  0  0  0  0  0  0  0  0  0  0
   78.7700   30.9500   53.1300 C   0  0  0  0  0  0  0  0  0  0  0  0
   79.3300   30.0600   53.4400 H   0  0  0  0  0  0  0  0  0  0  0  0
   79.2800   31.5200   52.3300 H   0  0  0  0  0  0  0  0  0  0  0  0
   81.4900   33.6100   55.8100 C   0  0  0  0  0  0  0  0  0  0  0  0
   81.9200   33.7600   56.8200 H   0  0  0  0  0  0  0  0  0  0  0  0
   81.3400   34.6100   55.3300 H   0  0  0  0  0  0  0  0  0  0  0  0
   82.4000   32.7700   55.0600 O   0  0  0  0  0  0  0  0  0  0  0  0
   83.2200   33.4400   54.2900 C   0  0  0  0  0  0  0  0  0  0  0  0
   83.3800   34.6400   54.2400 O   0  0  0  0  0  0  0  0  0  0  0  0
   83.9200   32.4500   53.3800 C   0  0  0  0  0  0  0  0  0  0  0  0
   83.8900   31.4600   53.8900 H   0  0  0  0  0  0  0  0  0  0  0  0
   84.9800   32.7800   53.2900 H   0  0  0  0  0  0  0  0  0  0  0  0
   77.8700   37.1500   57.6700 C   0  0  2  0  0  0  0  0  0  0  0  0
   77.9000   36.0300   57.5400 H   0  0  0  0  0  0  0  0  0  0  0  0
   78.8500   37.8300   56.9000 O   0  0  0  0  0  0  0  0  0  0  0  0
   79.0600   37.3000   55.7200 C   0  0  0  0  0  0  0  0  0  0  0  0
   78.5600   36.2700   55.3100 O   0  0  0  0  0  0  0  0  0  0  0  0
   79.9800   38.2000   54.9200 C   0  0  0  0  0  0  0  0  0  0  0  0
   80.7300   38.6500   55.6100 H   0  0  0  0  0  0  0  0  0  0  0  0
   79.3500   39.0000   54.4900 H   0  0  0  0  0  0  0  0  0  0  0  0
   76.4800   37.6100   57.0100 C   0  0  0  0  0  0  0  0  0  0  0  0
   75.6700   37.7700   57.7000 H   0  0  0  0  0  0  0  0  0  0  0  0
   76.5300   38.6600   56.8200 H   0  0  0  0  0  0  0  0  0  0  0  0
   76.0600   37.2300   55.6900 O   0  0  0  0  0  0  0  0  0  0  0  0
   75.2800   36.2000   55.4200 C   0  0  0  0  0  0  0  0  0  0  0  0
   74.8800   35.3700   56.1500 O   0  0  0  0  0  0  0  0  0  0  0  0
   74.9100   35.9200   54.0500 C   0  0  0  0  0  0  0  0  0  0  0  0
   73.8100   35.7900   53.9500 H   0  0  0  0  0  0  0  0  0  0  0  0
   75.4000   34.9200   53.9500 H   0  0  0  0  0  0  0  0  0  0  0  0
   77.4000   30.5200   52.5900 C   0  0  0  0  0  0  0  0  0  0  0  0
   76.6800   31.3600   52.5400 H   0  0  0  0  0  0  0  0  0  0  0  0
   76.9400   29.7500   53.2500 H   0  0  0  0  0  0  0  0  0  0  0  0
   77.6800   30.0900   51.1600 C   0  0  0  0  0  0  0  0  0  0  0  0
   78.2700   29.1400   51.1100 H   0  0  0  0  0  0  0  0  0  0  0  0
   78.2200   30.9200   50.6500 H   0  0  0  0  0  0  0  0  0  0  0  0
   76.4600   30.0000   50.3200 C   0  0  0  0  0  0  0  0  0  0  0  0
   75.7600   30.8400   50.3300 H   0  0  0  0  0  0  0  0  0  0  0  0
   75.9400   29.1000   50.7400 H   0  0  0  0  0  0  0  0  0  0  0  0
   76.8100   30.1400   48.8200 C   0  0  0  0  0  0  0  0  0  0  0  0
   77.3900   29.1600   48.7700 H   0  0  0  0  0  0  0  0  0  0  0  0
   77.6200   30.6600   48.3500 H   0  0  0  0  0  0  0  0  0  0  0  0
   75.5900   30.6600   47.8500 C   0  0  0  0  0  0  0  0  0  0  0  0
   74.9600   31.4000   48.3400 H   0  0  0  0  0  0  0  0  0  0  0  0
   74.7100   30.0900   47.7700 H   0  0  0  0  0  0  0  0  0  0  0  0
   75.4500   30.3500   46.3100 C   0  0  0  0  0  0  0  0  0  0  0  0
   74.4500   30.0300   45.9100 H   0  0  0  0  0  0  0  0  0  0  0  0
   76.0600   29.5900   45.8500 H   0  0  0  0  0  0  0  0  0  0  0  0
   76.1400   31.4900   45.8200 C   0  0  0  0  0  0  0  0  0  0  0  0
   77.0800   31.6400   46.3700 H   0  0  0  0  0  0  0  0  0  0  0  0
   75.7100   32.1800   44.8000 C   0  0  0  0  0  0  0  0  0  0  0  0
   76.1900   33.1400   44.6600 H   0  0  0  0  0  0  0  0  0  0  0  0
   74.4600   31.9100   43.9900 C   0  0  0  0  0  0  0  0  0  0  0  0
   74.2100   32.9000   43.5800 H   0  0  0  0  0  0  0  0  0  0  0  0
   73.5900   31.6900   44.6400 H   0  0  0  0  0  0  0  0  0  0  0  0
   74.5700   30.8700   42.8900 C   0  0  0  0  0  0  0  0  0  0  0  0
   75.0500   29.9500   43.2100 H   0  0  0  0  0  0  0  0  0  0  0  0
   74.1500   30.9400   41.6100 C   0  0  0  0  0  0  0  0  0  0  0  0
   74.3200   30.0900   40.9200 H   0  0  0  0  0  0  0  0  0  0  0  0
   73.4600   32.1100   40.9700 C   0  0  0  0  0  0  0  0  0  0  0  0
   73.5300   33.0200   41.6100 H   0  0  0  0  0  0  0  0  0  0  0  0
   72.3800   31.8500   40.8800 H   0  0  0  0  0  0  0  0  0  0  0  0
   74.0600   32.5500   39.6100 C   0  0  0  0  0  0  0  0  0  0  0  0
   73.2800   33.1800   39.1200 H   0  0  0  0  0  0  0  0  0  0  0  0
   74.2400   31.6700   38.9500 H   0  0  0  0  0  0  0  0  0  0  0  0
   75.3100   33.4600   39.6400 C   0  0  0  0  0  0  0  0  0  0  0  0
   74.9600   34.4600   39.9900 H   0  0  0  0  0  0  0  0  0  0  0  0
   75.6600   33.6000   38.6000 H   0  0  0  0  0  0  0  0  0  0  0  0
   76.4800   32.9900   40.5300 C   0  0  0  0  0  0  0  0  0  0  0  0
   76.6600   31.9100   40.4400 H   0  0  0  0  0  0  0  0  0  0  0  0
   76.1300   33.1400   41.5700 H   0  0  0  0  0  0  0  0  0  0  0  0
   77.8400   33.6700   40.3100 C   0  0  0  0  0  0  0  0  0  0  0  0
   78.4600   33.6300   41.2300 H   0  0  0  0  0  0  0  0  0  0  0  0
   77.6700   34.7200   40.0200 H   0  0  0  0  0  0  0  0  0  0  0  0
   78.4300   33.1700   39.4900 H   0  0  0  0  0  0  0  0  0  0  0  0
   83.3400   32.4500   51.9300 C   0  0  0  0  0  0  0  0  0  0  0  0
   83.9200   31.6500   51.4300 H   0  0  0  0  0  0  0  0  0  0  0  0
   83.5800   33.4200   51.4300 H   0  0  0  0  0  0  0  0  0  0  0  0
   81.8600   32.0800   51.7600 C   0  0  0  0  0  0  0  0  0  0  0  0
   81.2300   32.9500   52.0800 H   0  0  0  0  0  0  0  0  0  0  0  0
   81.6000   31.2300   52.4300 H   0  0  0  0  0  0  0  0  0  0  0  0
   81.4300   31.7000   50.3100 C   0  0  0  0  0  0  0  0  0  0  0  0
   81.5800   32.5900   49.6800 H   0  0  0  0  0  0  0  0  0  0  0  0
   80.3400   31.5000   50.3100 H   0  0  0  0  0  0  0  0  0  0  0  0
   82.2200   30.6000   49.5500 C   0  0  0  0  0  0  0  0  0  0  0  0
   82.1100   29.5800   49.9800 H   0  0  0  0  0  0  0  0  0  0  0  0
   83.2900   30.8600   49.5900 H   0  0  0  0  0  0  0  0  0  0  0  0
   81.9700   30.6100   48.0200 C   0  0  0  0  0  0  0  0  0  0  0  0
   82.7300   29.9600   47.5300 H   0  0  0  0  0  0  0  0  0  0  0  0
   82.1600   31.6600   47.7000 H   0  0  0  0  0  0  0  0  0  0  0  0
   80.5400   30.2500   47.5600 C   0  0  0  0  0  0  0  0  0  0  0  0
   80.3800   30.5400   46.4900 H   0  0  0  0  0  0  0  0  0  0  0  0
   79.9000   30.9600   48.1300 H   0  0  0  0  0  0  0  0  0  0  0  0
   80.1100   28.8300   47.8000 C   0  0  0  0  0  0  0  0  0  0  0  0
   79.9000   28.5800   48.8500 H   0  0  0  0  0  0  0  0  0  0  0  0
   79.9500   27.8800   46.8600 C   0  0  0  0  0  0  0  0  0  0  0  0
   79.5900   26.8700   47.1400 H   0  0  0  0  0  0  0  0  0  0  0  0
   80.1800   28.0300   45.3800 C   0  0  0  0  0  0  0  0  0  0  0  0
   80.8000   27.2300   45.0100 H   0  0  0  0  0  0  0  0  0  0  0  0
   80.6000   28.9900   45.0800 H   0  0  0  0  0  0  0  0  0  0  0  0
   79.0100   27.8200   44.6000 C   0  0  0  0  0  0  0  0  0  0  0  0
   78.5200   26.8700   44.8200 H   0  0  0  0  0  0  0  0  0  0  0  0
   78.5100   28.6500   43.7100 C   0  0  0  0  0  0  0  0  0  0  0  0
   77.6000   28.4400   43.3500 H   0  0  0  0  0  0  0  0  0  0  0  0
   78.8000   29.9400   43.1200 C   0  0  0  0  0  0  0  0  0  0  0  0
   79.5000   30.3100   43.8500 H   0  0  0  0  0  0  0  0  0  0  0  0
   77.8800   30.5400   42.9500 H   0  0  0  0  0  0  0  0  0  0  0  0
   79.4500   29.8100   41.7600 C   0  0  0  0  0  0  0  0  0  0  0  0
   80.2000   29.0400   42.0900 H   0  0  0  0  0  0  0  0  0  0  0  0
   80.1700   30.5500   41.4700 H   0  0  0  0  0  0  0  0  0  0  0  0
   78.4200   29.6400   40.5700 C   0  0  0  0  0  0  0  0  0  0  0  0
   77.6500   30.3900   40.7500 H   0  0  0  0  0  0  0  0  0  0  0  0
   77.8200   28.7300   40.5600 H   0  0  0  0  0  0  0  0  0  0  0  0
   78.8100   29.7200   39.0700 C   0  0  0  0  0  0  0  0  0  0  0  0
   79.2200   30.6800   38.9400 H   0  0  0  0  0  0  0  0  0  0  0  0
   77.9800   29.3000   38.4200 H   0  0  0  0  0  0  0  0  0  0  0  0
   79.8700   29.0300   38.3600 C   0  0  0  0  0  0  0  0  0  0  0  0
   80.0400   29.1000   37.3400 H   0  0  0  0  0  0  0  0  0  0  0  0
   79.3400   28.0200   38.3000 H   0  0  0  0  0  0  0  0  0  0  0  0
   80.9400   28.9600   38.7500 H   0  0  0  0  0  0  0  0  0  0  0  0
   80.7500   37.3700   53.8600 C   0  0  0  0  0  0  0  0  0  0  0  0
   80.4100   36.3100   53.8500 H   0  0  0  0  0  0  0  0  0  0  0  0
   81.8300   37.3700   54.1000 H   0  0  0  0  0  0  0  0  0  0  0  0
   80.6100   37.8900   52.4400 C   0  0  0  0  0  0  0  0  0  0  0  0
   80.9700   38.9300   52.4900 H   0  0  0  0  0  0  0  0  0  0  0  0
   79.5300   38.0000   52.2300 H   0  0  0  0  0  0  0  0  0  0  0  0
   81.3600   37.0600   51.3600 C   0  0  0  0  0  0  0  0  0  0  0  0
   82.4600   37.0900   51.5400 H   0  0  0  0  0  0  0  0  0  0  0  0
   81.2200   37.4900   50.3400 H   0  0  0  0  0  0  0  0  0  0  0  0
   81.1500   35.5600   51.3600 C   0  0  0  0  0  0  0  0  0  0  0  0
   81.3800   35.1900   52.3900 H   0  0  0  0  0  0  0  0  0  0  0  0
   81.8900   35.0800   50.6800 H   0  0  0  0  0  0  0  0  0  0  0  0
   79.7100   35.1500   51.0600 C   0  0  0  0  0  0  0  0  0  0  0  0
   78.9800   35.8900   51.4500 H   0  0  0  0  0  0  0  0  0  0  0  0
   79.5400   34.2100   51.6400 H   0  0  0  0  0  0  0  0  0  0  0  0
   79.4600   34.7800   49.6000 C   0  0  0  0  0  0  0  0  0  0  0  0
   78.5100   34.2000   49.5700 H   0  0  0  0  0  0  0  0  0  0  0  0
   80.2800   34.0800   49.3300 H   0  0  0  0  0  0  0  0  0  0  0  0
   79.4100   35.9500   48.6400 C   0  0  0  0  0  0  0  0  0  0  0  0
   78.9100   36.8400   49.0600 H   0  0  0  0  0  0  0  0  0  0  0  0
   80.0000   36.0100   47.4200 C   0  0  0  0  0  0  0  0  0  0  0  0
   79.8400   36.9000   46.8000 H   0  0  0  0  0  0  0  0  0  0  0  0
   80.8400   34.9300   46.7500 C   0  0  0  0  0  0  0  0  0  0  0  0
   81.4900   34.4900   47.5300 H   0  0  0  0  0  0  0  0  0  0  0  0
   81.5400   35.3600   45.9900 H   0  0  0  0  0  0  0  0  0  0  0  0
   80.0400   33.8400   46.1100 C   0  0  0  0  0  0  0  0  0  0  0  0
   78.9800   33.8000   46.4200 H   0  0  0  0  0  0  0  0  0  0  0  0
   80.4900   33.0200   45.1400 C   0  0  0  0  0  0  0  0  0  0  0  0
   79.8100   32.2000   44.8300 H   0  0  0  0  0  0  0  0  0  0  0  0
   81.8800   33.0600   44.5300 C   0  0  0  0  0  0  0  0  0  0  0  0
   82.2700   32.0500   44.2800 H   0  0  0  0  0  0  0  0  0  0  0  0
   82.6300   33.4400   45.2600 H   0  0  0  0  0  0  0  0  0  0  0  0
   81.8900   33.9700   43.2600 C   0  0  0  0  0  0  0  0  0  0  0  0
   81.5800   34.9900   43.5800 H   0  0  0  0  0  0  0  0  0  0  0  0
   81.1300   33.6300   42.5100 H   0  0  0  0  0  0  0  0  0  0  0  0
   83.2600   34.1200   42.5700 C   0  0  0  0  0  0  0  0  0  0  0  0
   83.2000   35.0300   41.9200 H   0  0  0  0  0  0  0  0  0  0  0  0
   84.0600   34.2800   43.3300 H   0  0  0  0  0  0  0  0  0  0  0  0
   83.6700   32.9000   41.7400 C   0  0  0  0  0  0  0  0  0  0  0  0
   83.5200   31.9900   42.3600 H   0  0  0  0  0  0  0  0  0  0  0  0
   84.7500   32.9400   41.4500 H   0  0  0  0  0  0  0  0  0  0  0  0
   82.8700   32.7600   40.4800 C   0  0  0  0  0  0  0  0  0  0  0  0
   82.6700   33.7600   40.0400 H   0  0  0  0  0  0  0  0  0  0  0  0
   83.4200   32.1600   39.7200 H   0  0  0  0  0  0  0  0  0  0  0  0
   81.8900   32.2700   40.7000 H   0  0  0  0  0  0  0  0  0  0  0  0
   75.4400   36.9300   53.1200 C   0  0  0  0  0  0  0  0  0  0  0  0
   76.5500   37.0200   53.2200 H   0  0  0  0  0  0  0  0  0  0  0  0
   74.9700   37.9000   53.3800 H   0  0  0  0  0  0  0  0  0  0  0  0
   75.0800   36.5200   51.7100 C   0  0  0  0  0  0  0  0  0  0  0  0
   74.0000   36.7100   51.5600 H   0  0  0  0  0  0  0  0  0  0  0  0
   75.2600   35.4300   51.5400 H   0  0  0  0  0  0  0  0  0  0  0  0
   75.9300   37.4000   50.8100 C   0  0  0  0  0  0  0  0  0  0  0  0
   76.9900   37.1100   50.9700 H   0  0  0  0  0  0  0  0  0  0  0  0
   75.8500   38.4500   51.1700 H   0  0  0  0  0  0  0  0  0  0  0  0
   75.5400   37.2900   49.3400 C   0  0  0  0  0  0  0  0  0  0  0  0
   76.0500   38.0700   48.7600 H   0  0  0  0  0  0  0  0  0  0  0  0
   74.4600   37.5000   49.1900 H   0  0  0  0  0  0  0  0  0  0  0  0
   75.9100   35.9100   48.7900 C   0  0  0  0  0  0  0  0  0  0  0  0
   76.3500   35.3600   49.6500 H   0  0  0  0  0  0  0  0  0  0  0  0
   76.7200   36.0000   48.0200 H   0  0  0  0  0  0  0  0  0  0  0  0
   74.7200   35.0600   48.3000 C   0  0  0  0  0  0  0  0  0  0  0  0
   74.0300   35.0200   49.1600 H   0  0  0  0  0  0  0  0  0  0  0  0
   75.0200   34.0100   48.1100 H   0  0  0  0  0  0  0  0  0  0  0  0
   73.8800   35.6200   47.1900 C   0  0  0  0  0  0  0  0  0  0  0  0
   72.8300   35.7600   47.4500 H   0  0  0  0  0  0  0  0  0  0  0  0
   74.2400   35.9200   45.9400 C   0  0  0  0  0  0  0  0  0  0  0  0
   73.5300   36.3800   45.2300 H   0  0  0  0  0  0  0  0  0  0  0  0
   75.5900   35.7400   45.3900 C   0  0  0  0  0  0  0  0  0  0  0  0
   75.4900   35.3400   44.3700 H   0  0  0  0  0  0  0  0  0  0  0  0
   76.3600   35.1900   45.9600 H   0  0  0  0  0  0  0  0  0  0  0  0
   75.9400   37.1300   45.2500 C   0  0  0  0  0  0  0  0  0  0  0  0
   75.8800   37.8300   46.1300 H   0  0  0  0  0  0  0  0  0  0  0  0
   76.7200   37.4000   44.2300 C   0  0  0  0  0  0  0  0  0  0  0  0
   76.7800   38.4500   44.1600 H   0  0  0  0  0  0  0  0  0  0  0  0
   77.3900   36.6000   43.1100 C   0  0  0  0  0  0  0  0  0  0  0  0
   76.6000   36.1600   42.5100 H   0  0  0  0  0  0  0  0  0  0  0  0
   78.2500   36.0700   43.5400 H   0  0  0  0  0  0  0  0  0  0  0  0
   78.0700   37.3000   42.0100 C   0  0  0  0  0  0  0  0  0  0  0  0
   77.3600   38.1800   42.0500 H   0  0  0  0  0  0  0  0  0  0  0  0
   79.3600   37.4100   41.4000 C   0  0  0  0  0  0  0  0  0  0  0  0
   79.7500   38.3500   40.8800 H   0  0  0  0  0  0  0  0  0  0  0  0
   80.6800   36.8300   41.5800 C   0  0  0  0  0  0  0  0  0  0  0  0
   80.2800   35.8900   41.9100 H   0  0  0  0  0  0  0  0  0  0  0  0
   81.4100   37.3300   42.3000 H   0  0  0  0  0  0  0  0  0  0  0  0
   81.1400   36.9500   40.1300 C   0  0  0  0  0  0  0  0  0  0  0  0
   82.0300   36.3200   40.0900 H   0  0  0  0  0  0  0  0  0  0  0  0
   81.4100   37.9900   39.7900 H   0  0  0  0  0  0  0  0  0  0  0  0
   80.3900   36.5200   39.4100 H   0  0  0  0  0  0  0  0  0  0  0  0
  1  3  1  0  0  0  0
  1  2  1  0  0  0  0
  4  5  2  6  0  0  0
  4  6  1  0  0  0  0
  7  4  1  0  0  0  0
  7  1  1  0  0  0  0
  8  4  1  0  0  0  0
  9 11  1  0  0  0  0
  9  8  1  0  0  0  0
  9 10  1  0  0  0  0
 12  1  1  0  0  0  0
 12 13  1  1  0  0  0
 14 12  1  0  0  0  0
 14 15  1  0  0  0  0
 16 22  1  0  0  0  0
 16 12  1  0  0  0  0
 17 16  1  0  0  0  0
 18 16  1  0  0  0  0
 19 23  1  6  0  0  0
 19 22  1  0  0  0  0
 19 20  1  0  0  0  0
 21 19  2  0  0  0  0
 23 24  1  0  0  0  0
 24 26  1  0  0  0  0
 25 24  1  0  0  0  0
 27 28  1  1  0  0  0
 27 24  1  0  0  0  0
 29 27  1  0  0  0  0
 30 31  2  0  0  0  0
 30 29  1  0  0  0  0
 32 33  1  0  0  0  0
 32 30  1  0  0  0  0
 34 32  1  0  0  0  0
 35 27  1  0  0  0  0
 35 36  1  0  0  0  0
 37 35  1  0  0  0  0
 38 35  1  0  0  0  0
 39 38  1  0  0  0  0
 40 39  2  0  0  0  0
 41 42  1  0  0  0  0
 41 39  1  0  0  0  0
 43 41  1  0  0  0  0
 44 45  1  6  0  0  0
 44  9  1  0  0  0  0
 46 44  1  0  0  0  0
 47 46  1  0  0  0  0
 48 47  2  0  0  0  0
 49 50  1  0  0  0  0
 49 47  1  0  0  0  0
 51 49  1  0  0  0  0
 52 44  1  0  0  0  0
 52 53  1  0  0  0  0
 54 52  1  0  0  0  0
 55 52  1  0  0  0  0
 56 55  1  0  0  0  0
 56 57  2  0  0  0  0
 58 56  1  0  0  0  0
 59 58  1  0  0  0  0
 60 58  1  0  0  0  0
 61 32  1  0  0  0  0
 61 63  1  0  0  0  0
 62 61  1  0  0  0  0
 64 61  1  0  0  0  0
 65 64  1  0  0  0  0
 66 64  1  0  0  0  0
 67 68  1  0  0  0  0
 67 69  1  0  0  0  0
 67 64  1  0  0  0  0
 70 67  1  0  0  0  0
 71 70  1  0  0  0  0
 72 70  1  0  0  0  0
 73 74  1  0  0  0  0
 73 70  1  0  0  0  0
 75 73  1  0  0  0  0
 76 73  1  0  0  0  0
 77 76  1  0  0  0  0
 78 76  1  0  0  0  0
 79 76  1  0  0  0  0
 79 80  1  0  0  0  0
 81 79  1  0  0  0  0
 82 81  1  0  0  0  0
 83 85  1  0  0  0  0
 83 81  1  0  0  0  0
 84 83  1  0  0  0  0
 86 87  1  0  0  0  0
 86 83  1  0  0  0  0
 88 86  2  0  0  0  0
 89 88  1  0  0  0  0
 90 91  1  0  0  0  0
 90 88  1  0  0  0  0
 92 90  1  0  0  0  0
 93 96  1  0  0  0  0
 93 90  1  0  0  0  0
 94 93  1  0  0  0  0
 95 93  1  0  0  0  0
 96 97  1  0  0  0  0
 96 99  1  0  0  0  0
 98 96  1  0  0  0  0
 99101  1  0  0  0  0
100 99  1  0  0  0  0
102 99  1  0  0  0  0
102103  1  0  0  0  0
104102  1  0  0  0  0
105102  1  0  0  0  0
106 41  1  0  0  0  0
107106  1  0  0  0  0
108106  1  0  0  0  0
109106  1  0  0  0  0
109110  1  0  0  0  0
109111  1  0  0  0  0
112109  1  0  0  0  0
113112  1  0  0  0  0
114112  1  0  0  0  0
115117  1  0  0  0  0
115116  1  0  0  0  0
115112  1  0  0  0  0
118115  1  0  0  0  0
119118  1  0  0  0  0
120118  1  0  0  0  0
121124  1  0  0  0  0
121118  1  0  0  0  0
121123  1  0  0  0  0
122121  1  0  0  0  0
124125  1  0  0  0  0
126127  1  0  0  0  0
126124  2  0  0  0  0
128126  1  0  0  0  0
129128  1  0  0  0  0
130128  1  0  0  0  0
131132  1  0  0  0  0
131128  1  0  0  0  0
133131  2  0  0  0  0
134133  1  0  0  0  0
135133  1  0  0  0  0
135136  1  0  0  0  0
137135  1  0  0  0  0
138139  1  0  0  0  0
138135  1  0  0  0  0
140138  1  0  0  0  0
141142  1  0  0  0  0
141138  1  0  0  0  0
143141  1  0  0  0  0
144141  1  0  0  0  0
145144  1  0  0  0  0
146144  1  0  0  0  0
147150  1  0  0  0  0
147144  1  0  0  0  0
148147  1  0  0  0  0
149147  1  0  0  0  0
151153  1  0  0  0  0
151 49  1  0  0  0  0
152151  1  0  0  0  0
154155  1  0  0  0  0
154151  1  0  0  0  0
156154  1  0  0  0  0
157160  1  0  0  0  0
157158  1  0  0  0  0
157154  1  0  0  0  0
159157  1  0  0  0  0
160161  1  0  0  0  0
162160  1  0  0  0  0
163160  1  0  0  0  0
163164  1  0  0  0  0
163165  1  0  0  0  0
166163  1  0  0  0  0
167166  1  0  0  0  0
168166  1  0  0  0  0
169170  1  0  0  0  0
169166  1  0  0  0  0
171169  2  0  0  0  0
172171  1  0  0  0  0
173171  1  0  0  0  0
173174  1  0  0  0  0
175173  1  0  0  0  0
176177  1  0  0  0  0
176173  1  0  0  0  0
178176  2  0  0  0  0
179178  1  0  0  0  0
180178  1  0  0  0  0
180182  1  0  0  0  0
181180  1  0  0  0  0
183184  1  0  0  0  0
183180  1  0  0  0  0
185183  1  0  0  0  0
186183  1  0  0  0  0
186188  1  0  0  0  0
187186  1  0  0  0  0
189190  1  0  0  0  0
189186  1  0  0  0  0
191189  1  0  0  0  0
192195  1  0  0  0  0
192189  1  0  0  0  0
193192  1  0  0  0  0
194192  1  0  0  0  0
196197  1  0  0  0  0
196198  1  0  0  0  0
196 58  1  0  0  0  0
199196  1  0  0  0  0
200199  1  0  0  0  0
201199  1  0  0  0  0
202203  1  0  0  0  0
202204  1  0  0  0  0
202199  1  0  0  0  0
205202  1  0  0  0  0
206205  1  0  0  0  0
207205  1  0  0  0  0
208205  1  0  0  0  0
208209  1  0  0  0  0
210208  1  0  0  0  0
211208  1  0  0  0  0
211212  1  0  0  0  0
213211  1  0  0  0  0
214215  1  0  0  0  0
214211  1  0  0  0  0
216214  2  0  0  0  0
217216  1  0  0  0  0
218216  1  0  0  0  0
218220  1  0  0  0  0
219218  1  0  0  0  0
221218  1  0  0  0  0
221222  1  0  0  0  0
223221  1  0  0  0  0
224223  1  0  0  0  0
225227  1  0  0  0  0
225223  1  0  0  0  0
226225  1  0  0  0  0
228229  1  0  0  0  0
228225  1  0  0  0  0
230232  1  0  0  0  0
230228  1  0  0  0  0
231230  1  0  0  0  0
232233  1  0  0  0  0
232234  1  0  0  0  0
235232  1  0  0  0  0
236235  1  0  0  0  0
237235  1  0  0  0  0
238235  1  0  0  0  0
M  END
