PVPE
 OpenBabel02161614153D

125124  0  0  1  0  0  0  0  0999 V2000
   -4.7200   14.9300   58.5700 N   0  0  0  0  0  0  0  0  0  0  0  0
   -5.3400   15.7500   58.7300 H   0  0  0  0  0  0  0  0  0  0  0  0
   -4.0400   15.1400   57.8100 H   0  0  0  0  0  0  0  0  0  0  0  0
   -5.2800   14.0800   58.3600 H   0  0  0  0  0  0  0  0  0  0  0  0
   -3.9200   14.6900   59.8200 C   0  0  0  0  0  0  0  0  0  0  0  0
   -4.4700   13.9800   60.4700 H   0  0  0  0  0  0  0  0  0  0  0  0
   -3.8200   15.6700   60.3400 H   0  0  0  0  0  0  0  0  0  0  0  0
   -2.5200   14.1800   59.4600 C   0  0  0  0  0  0  0  0  0  0  0  0
   -2.5900   13.2600   58.8400 H   0  0  0  0  0  0  0  0  0  0  0  0
   -1.9600   13.9500   60.4000 H   0  0  0  0  0  0  0  0  0  0  0  0
   -0.5100   14.9500   58.0100 P   0  0  1  0  0  0  0  0  0  0  0  0
    0.4200   14.2200   58.8900 O   0  0  0  0  0  0  0  0  0  0  0  0
   -0.1200   16.2500   57.4400 O   0  0  0  0  0  0  0  0  0  0  0  0
   -1.0000   13.9200   56.9500 O   0  0  0  0  0  0  0  0  0  0  0  0
   -1.8700   15.2300   58.7700 O   0  0  0  0  0  0  0  0  0  0  0  0
   -1.8800   14.2000   55.8800 C   0  0  0  0  0  0  0  0  0  0  0  0
   -2.2100   15.2600   55.8700 H   0  0  0  0  0  0  0  0  0  0  0  0
   -2.7500   13.5200   55.9700 H   0  0  0  0  0  0  0  0  0  0  0  0
   -1.2200   13.8300   54.5400 C   0  0  2  0  0  0  0  0  0  0  0  0
   -1.2500   12.7200   54.4600 H   0  0  0  0  0  0  0  0  0  0  0  0
    0.1300   14.2900   54.5300 O   0  0  0  0  0  0  0  0  0  0  0  0
    0.7900   13.7300   53.5300 C   0  0  0  0  0  0  0  0  0  0  0  0
    0.3600   12.8600   52.7900 O   0  0  0  0  0  0  0  0  0  0  0  0
    2.0900   14.4100   53.3900 C   0  0  0  0  0  0  0  0  0  0  0  0
    2.9800   13.8800   53.1700 H   0  0  0  0  0  0  0  0  0  0  0  0
    2.2600   14.8400   54.3200 H   0  0  0  0  0  0  0  0  0  0  0  0
   -1.9700   14.4200   53.3600 C   0  0  0  0  0  0  0  0  0  0  0  0
   -1.4900   14.0600   52.4100 H   0  0  0  0  0  0  0  0  0  0  0  0
   -3.0300   14.1100   53.3500 H   0  0  0  0  0  0  0  0  0  0  0  0
   -1.8500   15.8300   53.4700 O   0  0  0  0  0  0  0  0  0  0  0  0
   -2.1100   16.3300   52.3000 C   0  0  0  0  0  0  0  0  0  0  0  0
   -2.6800   15.7600   51.3800 O   0  0  0  0  0  0  0  0  0  0  0  0
   -1.7600   17.7600   52.4100 C   0  0  0  0  0  0  0  0  0  0  0  0
   -0.9800   18.0300   53.1200 H   0  0  0  0  0  0  0  0  0  0  0  0
   -2.7000   17.9600   52.9600 H   0  0  0  0  0  0  0  0  0  0  0  0
    2.1700   15.6600   52.6800 C   0  0  0  0  0  0  0  0  0  0  0  0
    3.2300   16.0300   52.6800 H   0  0  0  0  0  0  0  0  0  0  0  0
    1.4500   16.3500   53.1300 H   0  0  0  0  0  0  0  0  0  0  0  0
    1.9000   15.3600   51.3300 C   0  0  0  0  0  0  0  0  0  0  0  0
    1.7200   16.1900   50.6400 H   0  0  0  0  0  0  0  0  0  0  0  0
    0.9800   14.7300   51.3200 H   0  0  0  0  0  0  0  0  0  0  0  0
    3.1400   14.7500   50.8100 C   0  0  0  0  0  0  0  0  0  0  0  0
    3.6900   13.9700   51.3900 H   0  0  0  0  0  0  0  0  0  0  0  0
    3.9300   15.4900   50.5600 H   0  0  0  0  0  0  0  0  0  0  0  0
    2.3400   14.2200   49.7300 C   0  0  0  0  0  0  0  0  0  0  0  0
    1.2900   14.5000   49.4600 H   0  0  0  0  0  0  0  0  0  0  0  0
    2.2000   13.2500   50.2700 H   0  0  0  0  0  0  0  0  0  0  0  0
    3.1400   14.3700   48.5400 C   0  0  0  0  0  0  0  0  0  0  0  0
    3.5100   13.3800   48.7800 H   0  0  0  0  0  0  0  0  0  0  0  0
    4.0500   14.9700   48.7000 H   0  0  0  0  0  0  0  0  0  0  0  0
    2.6000   14.6600   47.1000 C   0  0  0  0  0  0  0  0  0  0  0  0
    1.6700   14.1800   46.7600 H   0  0  0  0  0  0  0  0  0  0  0  0
    3.1700   13.9900   46.4900 H   0  0  0  0  0  0  0  0  0  0  0  0
    3.2800   15.8300   46.3400 C   0  0  0  0  0  0  0  0  0  0  0  0
    4.3300   15.6000   46.0200 H   0  0  0  0  0  0  0  0  0  0  0  0
    3.4200   16.6700   47.0500 H   0  0  0  0  0  0  0  0  0  0  0  0
    2.6200   16.1600   45.0100 C   0  0  0  0  0  0  0  0  0  0  0  0
    1.5800   15.7900   45.0200 H   0  0  0  0  0  0  0  0  0  0  0  0
    3.1500   15.6900   44.1500 H   0  0  0  0  0  0  0  0  0  0  0  0
    2.6200   17.6400   44.9000 C   0  0  0  0  0  0  0  0  0  0  0  0
    1.6400   18.0600   45.0100 H   0  0  0  0  0  0  0  0  0  0  0  0
    3.6500   18.4300   44.6000 C   0  0  0  0  0  0  0  0  0  0  0  0
    3.5100   19.5100   44.5500 H   0  0  0  0  0  0  0  0  0  0  0  0
    5.0300   18.0000   44.2900 C   0  0  0  0  0  0  0  0  0  0  0  0
    5.4300   17.1400   44.8800 H   0  0  0  0  0  0  0  0  0  0  0  0
    5.7700   18.8200   44.3200 H   0  0  0  0  0  0  0  0  0  0  0  0
    4.9300   17.6000   42.8400 C   0  0  0  0  0  0  0  0  0  0  0  0
    4.3800   16.6300   42.7700 H   0  0  0  0  0  0  0  0  0  0  0  0
    6.0100   17.4600   42.6300 H   0  0  0  0  0  0  0  0  0  0  0  0
    4.3300   18.5600   41.7900 C   0  0  0  0  0  0  0  0  0  0  0  0
    5.1100   18.8300   41.0400 H   0  0  0  0  0  0  0  0  0  0  0  0
    4.0300   19.5100   42.2600 H   0  0  0  0  0  0  0  0  0  0  0  0
    3.1500   17.9500   41.0100 C   0  0  0  0  0  0  0  0  0  0  0  0
    2.3300   17.6300   41.6900 H   0  0  0  0  0  0  0  0  0  0  0  0
    3.4400   17.0400   40.4400 H   0  0  0  0  0  0  0  0  0  0  0  0
    2.6500   18.9500   39.9900 C   0  0  0  0  0  0  0  0  0  0  0  0
    1.8400   18.4800   39.3700 H   0  0  0  0  0  0  0  0  0  0  0  0
    3.5300   19.2300   39.3500 H   0  0  0  0  0  0  0  0  0  0  0  0
    2.1900   20.2400   40.5900 C   0  0  0  0  0  0  0  0  0  0  0  0
    1.4700   20.7200   39.8900 H   0  0  0  0  0  0  0  0  0  0  0  0
    1.7600   20.0200   41.5700 H   0  0  0  0  0  0  0  0  0  0  0  0
    3.0500   20.9200   40.7800 H   0  0  0  0  0  0  0  0  0  0  0  0
   -1.7000   18.5200   51.1200 C   0  0  0  0  0  0  0  0  0  0  0  0
   -1.8900   19.6200   51.2400 H   0  0  0  0  0  0  0  0  0  0  0  0
   -2.3100   18.0100   50.3600 H   0  0  0  0  0  0  0  0  0  0  0  0
   -0.7100   18.3800   50.0700 C   0  0  0  0  0  0  0  0  0  0  0  0
   -0.4900   17.3000   49.8900 H   0  0  0  0  0  0  0  0  0  0  0  0
    0.1100   19.0000   50.4400 H   0  0  0  0  0  0  0  0  0  0  0  0
   -1.1600   18.9900   48.7500 C   0  0  0  0  0  0  0  0  0  0  0  0
   -1.1400   20.1100   48.8600 H   0  0  0  0  0  0  0  0  0  0  0  0
   -2.1200   18.6900   48.2900 H   0  0  0  0  0  0  0  0  0  0  0  0
   -0.2000   18.5200   47.8000 C   0  0  0  0  0  0  0  0  0  0  0  0
   -0.0400   17.4400   47.7100 H   0  0  0  0  0  0  0  0  0  0  0  0
    0.5600   18.9400   48.4000 H   0  0  0  0  0  0  0  0  0  0  0  0
   -0.1300   19.3900   46.6500 C   0  0  0  0  0  0  0  0  0  0  0  0
    0.8000   19.1000   46.1800 H   0  0  0  0  0  0  0  0  0  0  0  0
   -0.1000   20.4400   46.9600 H   0  0  0  0  0  0  0  0  0  0  0  0
   -1.1900   19.1700   45.7100 C   0  0  0  0  0  0  0  0  0  0  0  0
   -0.5900   19.3200   44.8400 H   0  0  0  0  0  0  0  0  0  0  0  0
   -1.8800   20.0100   45.7800 H   0  0  0  0  0  0  0  0  0  0  0  0
   -1.5900   17.7200   45.6300 C   0  0  0  0  0  0  0  0  0  0  0  0
   -2.1400   17.3600   46.5200 H   0  0  0  0  0  0  0  0  0  0  0  0
   -0.6000   17.1800   45.5500 H   0  0  0  0  0  0  0  0  0  0  0  0
   -2.3400   17.4700   44.3700 C   0  0  0  0  0  0  0  0  0  0  0  0
   -3.1900   18.1800   44.2200 H   0  0  0  0  0  0  0  0  0  0  0  0
   -2.7000   16.4300   44.3200 H   0  0  0  0  0  0  0  0  0  0  0  0
   -1.3800   17.7200   43.2600 C   0  0  0  0  0  0  0  0  0  0  0  0
   -0.3100   17.6200   43.5100 H   0  0  0  0  0  0  0  0  0  0  0  0
   -1.1400   18.7400   43.2500 H   0  0  0  0  0  0  0  0  0  0  0  0
   -2.0000   17.3000   41.9500 C   0  0  0  0  0  0  0  0  0  0  0  0
   -1.3600   17.7300   41.1500 H   0  0  0  0  0  0  0  0  0  0  0  0
   -3.0700   17.5700   41.8200 H   0  0  0  0  0  0  0  0  0  0  0  0
   -1.7300   15.9000   41.7300 C   0  0  0  0  0  0  0  0  0  0  0  0
   -2.0800   15.5500   40.7300 H   0  0  0  0  0  0  0  0  0  0  0  0
   -2.2400   15.2800   42.5000 H   0  0  0  0  0  0  0  0  0  0  0  0
   -0.2100   16.0400   41.9200 C   0  0  0  0  0  0  0  0  0  0  0  0
    0.0600   15.9600   43.0000 H   0  0  0  0  0  0  0  0  0  0  0  0
    0.3000   16.8800   41.3800 H   0  0  0  0  0  0  0  0  0  0  0  0
    0.4600   14.9000   41.5600 C   0  0  0  0  0  0  0  0  0  0  0  0
    0.4300   14.8600   40.4500 H   0  0  0  0  0  0  0  0  0  0  0  0
   -0.3800   14.3300   42.0100 H   0  0  0  0  0  0  0  0  0  0  0  0
    1.7000   14.5000   42.3500 C   0  0  0  0  0  0  0  0  0  0  0  0
    2.0300   13.5200   42.0000 H   0  0  0  0  0  0  0  0  0  0  0  0
    2.5700   15.1600   42.2000 H   0  0  0  0  0  0  0  0  0  0  0  0
    1.4600   14.3000   43.4200 H   0  0  0  0  0  0  0  0  0  0  0  0
  1  2  1  0  0  0  0
  1  5  1  0  0  0  0
  3  1  1  0  0  0  0
  4  1  1  0  0  0  0
  5  7  1  0  0  0  0
  5  6  1  0  0  0  0
  8  5  1  0  0  0  0
  8 10  1  0  0  0  0
  9  8  1  0  0  0  0
 11 14  1  6  0  0  0
 11 15  1  0  0  0  0
 11 12  1  0  0  0  0
 13 11  2  0  0  0  0
 15  8  1  0  0  0  0
 16 18  1  0  0  0  0
 16 14  1  0  0  0  0
 17 16  1  0  0  0  0
 19 20  1  6  0  0  0
 19 16  1  0  0  0  0
 21 19  1  0  0  0  0
 22 21  1  0  0  0  0
 23 22  2  0  0  0  0
 24 22  1  0  0  0  0
 24 26  1  0  0  0  0
 25 24  1  0  0  0  0
 27 30  1  0  0  0  0
 27 19  1  0  0  0  0
 28 27  1  0  0  0  0
 29 27  1  0  0  0  0
 31 33  1  0  0  0  0
 31 30  1  0  0  0  0
 32 31  2  0  0  0  0
 33 35  1  0  0  0  0
 33 34  1  0  0  0  0
 36 38  1  0  0  0  0
 36 24  1  0  0  0  0
 37 36  1  0  0  0  0
 39 36  1  0  0  0  0
 40 39  1  0  0  0  0
 41 39  1  0  0  0  0
 42 39  1  0  0  0  0
 42 43  1  0  0  0  0
 44 42  1  0  0  0  0
 45 47  1  0  0  0  0
 45 42  1  0  0  0  0
 46 45  1  0  0  0  0
 48 50  1  0  0  0  0
 48 49  1  0  0  0  0
 48 45  1  0  0  0  0
 51 48  1  0  0  0  0
 52 51  1  0  0  0  0
 53 51  1  0  0  0  0
 54 56  1  0  0  0  0
 54 51  1  0  0  0  0
 55 54  1  0  0  0  0
 57 58  1  0  0  0  0
 57 54  1  0  0  0  0
 59 57  1  0  0  0  0
 60 61  1  0  0  0  0
 60 57  1  0  0  0  0
 62 60  2  0  0  0  0
 63 62  1  0  0  0  0
 64 66  1  0  0  0  0
 64 62  1  0  0  0  0
 64 65  1  0  0  0  0
 67 64  1  0  0  0  0
 68 67  1  0  0  0  0
 69 67  1  0  0  0  0
 70 72  1  0  0  0  0
 70 67  1  0  0  0  0
 71 70  1  0  0  0  0
 73 74  1  0  0  0  0
 73 70  1  0  0  0  0
 75 73  1  0  0  0  0
 76 79  1  0  0  0  0
 76 73  1  0  0  0  0
 77 76  1  0  0  0  0
 78 76  1  0  0  0  0
 79 82  1  0  0  0  0
 79 81  1  0  0  0  0
 80 79  1  0  0  0  0
 83 84  1  0  0  0  0
 83 33  1  0  0  0  0
 85 83  1  0  0  0  0
 86 88  1  0  0  0  0
 86 83  1  0  0  0  0
 87 86  1  0  0  0  0
 89 90  1  0  0  0  0
 89 86  1  0  0  0  0
 91 89  1  0  0  0  0
 92 94  1  0  0  0  0
 92 89  1  0  0  0  0
 93 92  1  0  0  0  0
 95 97  1  0  0  0  0
 95 92  1  0  0  0  0
 96 95  1  0  0  0  0
 98100  1  0  0  0  0
 98 95  1  0  0  0  0
 99 98  1  0  0  0  0
101 98  1  0  0  0  0
101102  1  0  0  0  0
103101  1  0  0  0  0
104101  1  0  0  0  0
105104  1  0  0  0  0
106104  1  0  0  0  0
107108  1  0  0  0  0
107104  1  0  0  0  0
109107  1  0  0  0  0
110107  1  0  0  0  0
111110  1  0  0  0  0
112110  1  0  0  0  0
113116  1  0  0  0  0
113110  1  0  0  0  0
113115  1  0  0  0  0
114113  1  0  0  0  0
116117  1  0  0  0  0
118116  1  0  0  0  0
119116  1  0  0  0  0
119121  1  0  0  0  0
119122  1  0  0  0  0
120119  1  0  0  0  0
122125  1  0  0  0  0
123122  1  0  0  0  0
124122  1  0  0  0  0
M  END
