DMPE
 OpenBabel02161614153D

109108  0  0  1  0  0  0  0  0999 V2000
   40.6900   11.8500   59.2900 N   0  0  0  0  0  0  0  0  0  0  0  0
   41.6200   11.8300   59.7500 H   0  0  0  0  0  0  0  0  0  0  0  0
   40.3900   10.9000   58.9400 H   0  0  0  0  0  0  0  0  0  0  0  0
   39.9700   12.2000   59.9500 H   0  0  0  0  0  0  0  0  0  0  0  0
   40.7000   12.7200   58.0700 C   0  0  0  0  0  0  0  0  0  0  0  0
   41.6400   12.5000   57.5100 H   0  0  0  0  0  0  0  0  0  0  0  0
   40.7000   13.7800   58.3900 H   0  0  0  0  0  0  0  0  0  0  0  0
   39.4500   12.4400   57.2100 C   0  0  0  0  0  0  0  0  0  0  0  0
   39.5400   13.0900   56.3000 H   0  0  0  0  0  0  0  0  0  0  0  0
   38.5400   12.7500   57.7700 H   0  0  0  0  0  0  0  0  0  0  0  0
   38.7900   10.6500   55.4200 P   0  0  1  0  0  0  0  0  0  0  0  0
   38.5400    9.2000   55.3900 O   0  0  0  0  0  0  0  0  0  0  0  0
   39.7200   11.2500   54.4500 O   0  0  0  0  0  0  0  0  0  0  0  0
   37.4300   11.4100   55.3500 O   0  0  0  0  0  0  0  0  0  0  0  0
   39.3300   11.0600   56.8800 O   0  0  0  0  0  0  0  0  0  0  0  0
   36.3000   10.9900   56.0900 C   0  0  0  0  0  0  0  0  0  0  0  0
   36.3900   11.3500   57.1400 H   0  0  0  0  0  0  0  0  0  0  0  0
   36.1400    9.8900   56.0800 H   0  0  0  0  0  0  0  0  0  0  0  0
   35.0600   11.6500   55.4500 C   0  0  2  0  0  0  0  0  0  0  0  0
   34.1500   11.0800   55.7400 H   0  0  0  0  0  0  0  0  0  0  0  0
   35.1300   11.7500   54.0200 O   0  0  0  0  0  0  0  0  0  0  0  0
   34.9300   10.6400   53.3300 C   0  0  0  0  0  0  0  0  0  0  0  0
   34.6800    9.5500   53.8100 O   0  0  0  0  0  0  0  0  0  0  0  0
   34.8100   11.0500   51.8600 C   0  0  0  0  0  0  0  0  0  0  0  0
   35.7000   10.7300   51.2900 H   0  0  0  0  0  0  0  0  0  0  0  0
   34.7400   12.1600   51.8300 H   0  0  0  0  0  0  0  0  0  0  0  0
   34.9600   13.0800   56.0200 C   0  0  0  0  0  0  0  0  0  0  0  0
   34.7000   13.0100   57.1000 H   0  0  0  0  0  0  0  0  0  0  0  0
   34.1900   13.6500   55.5200 H   0  0  0  0  0  0  0  0  0  0  0  0
   36.1500   13.8400   55.8900 O   0  0  0  0  0  0  0  0  0  0  0  0
   36.2900   14.4000   54.7000 C   0  0  0  0  0  0  0  0  0  0  0  0
   35.4700   14.4800   53.8100 O   0  0  0  0  0  0  0  0  0  0  0  0
   37.6200   15.0800   54.7500 C   0  0  0  0  0  0  0  0  0  0  0  0
   38.3500   14.3100   55.0800 H   0  0  0  0  0  0  0  0  0  0  0  0
   37.5600   15.8600   55.5400 H   0  0  0  0  0  0  0  0  0  0  0  0
   33.5400   10.5100   51.1900 C   0  0  0  0  0  0  0  0  0  0  0  0
   33.1700   11.2200   50.4200 H   0  0  0  0  0  0  0  0  0  0  0  0
   32.7700   10.4200   51.9800 H   0  0  0  0  0  0  0  0  0  0  0  0
   33.7500    9.1400   50.5600 C   0  0  0  0  0  0  0  0  0  0  0  0
   34.2600    8.5100   51.3200 H   0  0  0  0  0  0  0  0  0  0  0  0
   34.4000    9.2700   49.6700 H   0  0  0  0  0  0  0  0  0  0  0  0
   32.5000    8.3900   50.1100 C   0  0  0  0  0  0  0  0  0  0  0  0
   31.8400    8.1400   50.9600 H   0  0  0  0  0  0  0  0  0  0  0  0
   32.7600    7.3700   49.8300 H   0  0  0  0  0  0  0  0  0  0  0  0
   31.7400    9.1000   49.0000 C   0  0  0  0  0  0  0  0  0  0  0  0
   31.6200   10.1800   49.2500 H   0  0  0  0  0  0  0  0  0  0  0  0
   30.7400    8.6000   48.9500 H   0  0  0  0  0  0  0  0  0  0  0  0
   32.4500    9.1600   47.6600 C   0  0  0  0  0  0  0  0  0  0  0  0
   33.3100    9.8400   47.6800 H   0  0  0  0  0  0  0  0  0  0  0  0
   31.9000    9.4900   46.7700 H   0  0  0  0  0  0  0  0  0  0  0  0
   33.0000    7.8500   47.3100 C   0  0  0  0  0  0  0  0  0  0  0  0
   32.1000    7.1600   47.3700 H   0  0  0  0  0  0  0  0  0  0  0  0
   33.7200    7.5400   48.0700 H   0  0  0  0  0  0  0  0  0  0  0  0
   33.8600    8.0300   46.0700 C   0  0  0  0  0  0  0  0  0  0  0  0
   34.5400    8.8700   46.1200 H   0  0  0  0  0  0  0  0  0  0  0  0
   33.1400    8.3400   45.2900 H   0  0  0  0  0  0  0  0  0  0  0  0
   34.9500    6.9700   45.8100 C   0  0  0  0  0  0  0  0  0  0  0  0
   34.5400    6.1200   45.3800 H   0  0  0  0  0  0  0  0  0  0  0  0
   35.3100    6.4700   46.6900 H   0  0  0  0  0  0  0  0  0  0  0  0
   35.6600    6.7700   44.5100 C   0  0  0  0  0  0  0  0  0  0  0  0
   36.5700    7.3700   44.6400 H   0  0  0  0  0  0  0  0  0  0  0  0
   35.1200    7.1500   43.6300 H   0  0  0  0  0  0  0  0  0  0  0  0
   35.8600    5.2400   44.1400 C   0  0  0  0  0  0  0  0  0  0  0  0
   35.1000    4.4500   44.1000 H   0  0  0  0  0  0  0  0  0  0  0  0
   36.6300    4.9100   44.9000 H   0  0  0  0  0  0  0  0  0  0  0  0
   36.3300    5.3000   42.7500 C   0  0  0  0  0  0  0  0  0  0  0  0
   37.1100    4.8200   42.2300 H   0  0  0  0  0  0  0  0  0  0  0  0
   37.0300    5.8500   43.3200 H   0  0  0  0  0  0  0  0  0  0  0  0
   35.8100    5.3700   41.3700 C   0  0  0  0  0  0  0  0  0  0  0  0
   35.4400    6.3600   41.2900 H   0  0  0  0  0  0  0  0  0  0  0  0
   35.1800    4.5400   41.4200 H   0  0  0  0  0  0  0  0  0  0  0  0
   36.4900    5.2100   40.4900 H   0  0  0  0  0  0  0  0  0  0  0  0
   37.9600   15.6800   53.3900 C   0  0  0  0  0  0  0  0  0  0  0  0
   38.5700   16.5800   53.5900 H   0  0  0  0  0  0  0  0  0  0  0  0
   37.0600   16.0200   52.8300 H   0  0  0  0  0  0  0  0  0  0  0  0
   38.8700   14.8100   52.5200 C   0  0  0  0  0  0  0  0  0  0  0  0
   39.7600   14.4900   53.1000 H   0  0  0  0  0  0  0  0  0  0  0  0
   39.2300   15.4600   51.7000 H   0  0  0  0  0  0  0  0  0  0  0  0
   38.1600   13.5800   51.9400 C   0  0  0  0  0  0  0  0  0  0  0  0
   37.2900   13.9500   51.3700 H   0  0  0  0  0  0  0  0  0  0  0  0
   37.7900   12.9400   52.7800 H   0  0  0  0  0  0  0  0  0  0  0  0
   39.0800   12.7100   51.0600 C   0  0  0  0  0  0  0  0  0  0  0  0
   39.8600   12.2700   51.7200 H   0  0  0  0  0  0  0  0  0  0  0  0
   39.5700   13.4100   50.3400 H   0  0  0  0  0  0  0  0  0  0  0  0
   38.3900   11.5900   50.2600 C   0  0  0  0  0  0  0  0  0  0  0  0
   37.8300   10.8900   50.9100 H   0  0  0  0  0  0  0  0  0  0  0  0
   39.1700   10.9900   49.7300 H   0  0  0  0  0  0  0  0  0  0  0  0
   37.4700   12.1800   49.1900 C   0  0  0  0  0  0  0  0  0  0  0  0
   38.1300   12.7500   48.4900 H   0  0  0  0  0  0  0  0  0  0  0  0
   36.7600   12.9100   49.6500 H   0  0  0  0  0  0  0  0  0  0  0  0
   36.6400   11.2000   48.3700 C   0  0  0  0  0  0  0  0  0  0  0  0
   35.7300   10.9000   48.9500 H   0  0  0  0  0  0  0  0  0  0  0  0
   37.1800   10.2800   48.0700 H   0  0  0  0  0  0  0  0  0  0  0  0
   36.1500   11.9300   47.1200 C   0  0  0  0  0  0  0  0  0  0  0  0
   36.5700   12.9500   47.0200 H   0  0  0  0  0  0  0  0  0  0  0  0
   35.0800   12.0500   47.3900 H   0  0  0  0  0  0  0  0  0  0  0  0
   36.3800   11.1900   45.7900 C   0  0  0  0  0  0  0  0  0  0  0  0
   35.9900   10.1600   45.8600 H   0  0  0  0  0  0  0  0  0  0  0  0
   37.4800   11.1600   45.6500 H   0  0  0  0  0  0  0  0  0  0  0  0
   35.8500   11.8300   44.5000 C   0  0  0  0  0  0  0  0  0  0  0  0
   36.0500   12.9300   44.4800 H   0  0  0  0  0  0  0  0  0  0  0  0
   34.7700   11.7300   44.4000 H   0  0  0  0  0  0  0  0  0  0  0  0
   36.2100   11.0800   43.2400 C   0  0  0  0  0  0  0  0  0  0  0  0
   36.1900    9.9900   43.4400 H   0  0  0  0  0  0  0  0  0  0  0  0
   37.2300   11.4400   42.9700 H   0  0  0  0  0  0  0  0  0  0  0  0
   35.1900   11.3300   42.1400 C   0  0  0  0  0  0  0  0  0  0  0  0
   34.2200   10.8000   42.1400 H   0  0  0  0  0  0  0  0  0  0  0  0
   35.6200   11.2300   41.1300 H   0  0  0  0  0  0  0  0  0  0  0  0
   34.8800   12.3500   42.3500 H   0  0  0  0  0  0  0  0  0  0  0  0
  1  2  1  0  0  0  0
  1  4  1  0  0  0  0
  3  1  1  0  0  0  0
  5  7  1  0  0  0  0
  5  1  1  0  0  0  0
  6  5  1  0  0  0  0
  8 10  1  0  0  0  0
  8  5  1  0  0  0  0
  9  8  1  0  0  0  0
 11 13  2  6  0  0  0
 11 15  1  0  0  0  0
 12 11  1  0  0  0  0
 14 11  1  0  0  0  0
 14 16  1  0  0  0  0
 15  8  1  0  0  0  0
 16 17  1  0  0  0  0
 18 16  1  0  0  0  0
 19 20  1  1  0  0  0
 19 27  1  0  0  0  0
 19 16  1  0  0  0  0
 21 19  1  0  0  0  0
 22 23  2  0  0  0  0
 22 21  1  0  0  0  0
 24 22  1  0  0  0  0
 25 24  1  0  0  0  0
 26 24  1  0  0  0  0
 27 28  1  0  0  0  0
 29 27  1  0  0  0  0
 30 27  1  0  0  0  0
 31 33  1  0  0  0  0
 31 30  1  0  0  0  0
 32 31  2  0  0  0  0
 33 34  1  0  0  0  0
 33 35  1  0  0  0  0
 36 24  1  0  0  0  0
 36 38  1  0  0  0  0
 37 36  1  0  0  0  0
 39 36  1  0  0  0  0
 39 40  1  0  0  0  0
 41 39  1  0  0  0  0
 42 39  1  0  0  0  0
 42 43  1  0  0  0  0
 44 42  1  0  0  0  0
 45 46  1  0  0  0  0
 45 42  1  0  0  0  0
 47 45  1  0  0  0  0
 48 49  1  0  0  0  0
 48 45  1  0  0  0  0
 50 48  1  0  0  0  0
 51 52  1  0  0  0  0
 51 48  1  0  0  0  0
 51 53  1  0  0  0  0
 54 55  1  0  0  0  0
 54 51  1  0  0  0  0
 56 54  1  0  0  0  0
 57 54  1  0  0  0  0
 57 59  1  0  0  0  0
 58 57  1  0  0  0  0
 60 61  1  0  0  0  0
 60 57  1  0  0  0  0
 62 60  1  0  0  0  0
 63 60  1  0  0  0  0
 63 65  1  0  0  0  0
 64 63  1  0  0  0  0
 66 68  1  0  0  0  0
 66 63  1  0  0  0  0
 67 66  1  0  0  0  0
 69 71  1  0  0  0  0
 69 66  1  0  0  0  0
 70 69  1  0  0  0  0
 72 69  1  0  0  0  0
 73 74  1  0  0  0  0
 73 33  1  0  0  0  0
 75 73  1  0  0  0  0
 76 77  1  0  0  0  0
 76 73  1  0  0  0  0
 78 76  1  0  0  0  0
 79 76  1  0  0  0  0
 79 81  1  0  0  0  0
 80 79  1  0  0  0  0
 82 83  1  0  0  0  0
 82 79  1  0  0  0  0
 84 82  1  0  0  0  0
 85 86  1  0  0  0  0
 85 82  1  0  0  0  0
 87 85  1  0  0  0  0
 88 90  1  0  0  0  0
 88 85  1  0  0  0  0
 89 88  1  0  0  0  0
 91 92  1  0  0  0  0
 91 88  1  0  0  0  0
 93 91  1  0  0  0  0
 94 96  1  0  0  0  0
 94 91  1  0  0  0  0
 95 94  1  0  0  0  0
 97 98  1  0  0  0  0
 97 94  1  0  0  0  0
 99 97  1  0  0  0  0
100 97  1  0  0  0  0
101100  1  0  0  0  0
102100  1  0  0  0  0
103104  1  0  0  0  0
103100  1  0  0  0  0
105103  1  0  0  0  0
106109  1  0  0  0  0
106103  1  0  0  0  0
107106  1  0  0  0  0
108106  1  0  0  0  0
M  END
