DMPS
 OpenBabel02161614153D

111110  0  0  1  0  0  0  0  0999 V2000
   33.8300   37.1700   55.1500 N   0  0  0  0  0  0  0  0  0  0  0  0
   33.2300   36.6200   54.5100 H   0  0  0  0  0  0  0  0  0  0  0  0
   33.8700   38.1800   54.8800 H   0  0  0  0  0  0  0  0  0  0  0  0
   34.8000   36.7700   55.1200 H   0  0  0  0  0  0  0  0  0  0  0  0
   33.3400   37.0000   56.5800 C   0  0  1  0  0  0  0  0  0  0  0  0
   34.0100   37.5300   57.1200 H   0  0  0  0  0  0  0  0  0  0  0  0
   32.1800   37.8200   57.1300 C   0  0  0  0  0  0  0  0  0  0  0  0
   32.0700   37.9600   58.3800 O   0  0  0  0  0  0  0  0  0  0  0  0
   31.5100   38.4700   56.2900 O   0  0  0  0  0  0  0  0  0  0  0  0
   33.8000   35.7900   57.3800 C   0  0  0  0  0  0  0  0  0  0  0  0
   33.6600   36.0000   58.4700 H   0  0  0  0  0  0  0  0  0  0  0  0
   34.8800   35.5600   57.3200 H   0  0  0  0  0  0  0  0  0  0  0  0
   33.4800   33.4800   56.2200 P   0  0  2  0  0  0  0  0  0  0  0  0
   33.2400   32.3200   57.1100 O   0  0  0  0  0  0  0  0  0  0  0  0
   34.8300   33.7000   55.6900 O   0  0  0  0  0  0  0  0  0  0  0  0
   32.9800   34.7400   57.0000 O   0  0  0  0  0  0  0  0  0  0  0  0
   32.4600   33.5400   55.0200 O   0  0  0  0  0  0  0  0  0  0  0  0
   31.0700   33.5200   55.4200 C   0  0  0  0  0  0  0  0  0  0  0  0
   30.8500   34.0800   56.3700 H   0  0  0  0  0  0  0  0  0  0  0  0
   30.7500   32.4600   55.5700 H   0  0  0  0  0  0  0  0  0  0  0  0
   30.1500   34.1600   54.3700 C   0  0  2  0  0  0  0  0  0  0  0  0
   29.1300   33.8000   54.5900 H   0  0  0  0  0  0  0  0  0  0  0  0
   30.5300   33.8800   53.0400 O   0  0  0  0  0  0  0  0  0  0  0  0
   30.6700   32.6200   52.7700 C   0  0  0  0  0  0  0  0  0  0  0  0
   30.3100   31.6400   53.3800 O   0  0  0  0  0  0  0  0  0  0  0  0
   31.4000   32.5400   51.4900 C   0  0  0  0  0  0  0  0  0  0  0  0
   31.7600   33.5100   51.1300 H   0  0  0  0  0  0  0  0  0  0  0  0
   30.7200   32.0400   50.7500 H   0  0  0  0  0  0  0  0  0  0  0  0
   30.0400   35.6900   54.5000 C   0  0  0  0  0  0  0  0  0  0  0  0
   29.8600   35.9700   55.5500 H   0  0  0  0  0  0  0  0  0  0  0  0
   29.1600   35.9700   53.8600 H   0  0  0  0  0  0  0  0  0  0  0  0
   31.2600   36.3100   54.0800 O   0  0  0  0  0  0  0  0  0  0  0  0
   31.0400   37.4500   53.4900 C   0  0  0  0  0  0  0  0  0  0  0  0
   30.0800   38.1800   53.5900 O   0  0  0  0  0  0  0  0  0  0  0  0
   32.0900   37.4900   52.4300 C   0  0  0  0  0  0  0  0  0  0  0  0
   33.0300   37.1100   52.8400 H   0  0  0  0  0  0  0  0  0  0  0  0
   32.1900   38.5700   52.1900 H   0  0  0  0  0  0  0  0  0  0  0  0
   32.6200   31.7000   51.5900 C   0  0  0  0  0  0  0  0  0  0  0  0
   32.7700   31.5900   50.4900 H   0  0  0  0  0  0  0  0  0  0  0  0
   32.3700   30.7200   52.0600 H   0  0  0  0  0  0  0  0  0  0  0  0
   33.9600   32.2500   52.1600 C   0  0  0  0  0  0  0  0  0  0  0  0
   34.2700   31.5000   52.9300 H   0  0  0  0  0  0  0  0  0  0  0  0
   33.7600   33.2000   52.7000 H   0  0  0  0  0  0  0  0  0  0  0  0
   35.1900   32.4100   51.2200 C   0  0  0  0  0  0  0  0  0  0  0  0
   35.4200   31.4900   50.6500 H   0  0  0  0  0  0  0  0  0  0  0  0
   36.1000   32.5500   51.8400 H   0  0  0  0  0  0  0  0  0  0  0  0
   35.0600   33.5800   50.2300 C   0  0  0  0  0  0  0  0  0  0  0  0
   35.0300   34.4800   50.8400 H   0  0  0  0  0  0  0  0  0  0  0  0
   34.0700   33.4600   49.7300 H   0  0  0  0  0  0  0  0  0  0  0  0
   36.1100   33.8000   49.1200 C   0  0  0  0  0  0  0  0  0  0  0  0
   36.7900   32.9200   49.1200 H   0  0  0  0  0  0  0  0  0  0  0  0
   36.7800   34.6600   49.3000 H   0  0  0  0  0  0  0  0  0  0  0  0
   35.3300   34.1200   47.8100 C   0  0  0  0  0  0  0  0  0  0  0  0
   34.5200   34.8400   47.9600 H   0  0  0  0  0  0  0  0  0  0  0  0
   34.7600   33.1900   47.6900 H   0  0  0  0  0  0  0  0  0  0  0  0
   36.1700   34.5400   46.5700 C   0  0  0  0  0  0  0  0  0  0  0  0
   36.8200   33.7300   46.5700 H   0  0  0  0  0  0  0  0  0  0  0  0
   36.8800   35.3600   46.7900 H   0  0  0  0  0  0  0  0  0  0  0  0
   35.5600   34.6400   45.1000 C   0  0  0  0  0  0  0  0  0  0  0  0
   36.3300   35.1800   44.5100 H   0  0  0  0  0  0  0  0  0  0  0  0
   34.6300   35.2100   45.2300 H   0  0  0  0  0  0  0  0  0  0  0  0
   35.2200   33.4000   44.1900 C   0  0  0  0  0  0  0  0  0  0  0  0
   34.3900   32.8100   44.6500 H   0  0  0  0  0  0  0  0  0  0  0  0
   36.0900   32.7400   44.0400 H   0  0  0  0  0  0  0  0  0  0  0  0
   34.6400   33.5300   42.8100 C   0  0  0  0  0  0  0  0  0  0  0  0
   34.6900   32.5200   42.3100 H   0  0  0  0  0  0  0  0  0  0  0  0
   35.2300   34.2500   42.2100 H   0  0  0  0  0  0  0  0  0  0  0  0
   33.1900   33.9100   43.0000 C   0  0  0  0  0  0  0  0  0  0  0  0
   33.2000   34.9500   43.3800 H   0  0  0  0  0  0  0  0  0  0  0  0
   32.6900   33.2900   43.7900 H   0  0  0  0  0  0  0  0  0  0  0  0
   32.4200   33.7900   41.7200 C   0  0  0  0  0  0  0  0  0  0  0  0
   32.3600   32.7500   41.3400 H   0  0  0  0  0  0  0  0  0  0  0  0
   32.8700   34.4500   40.9500 H   0  0  0  0  0  0  0  0  0  0  0  0
   31.4000   34.1500   41.9600 H   0  0  0  0  0  0  0  0  0  0  0  0
   31.5900   36.4600   51.3900 C   0  0  0  0  0  0  0  0  0  0  0  0
   31.8500   35.4400   51.7200 H   0  0  0  0  0  0  0  0  0  0  0  0
   30.5000   36.6200   51.2500 H   0  0  0  0  0  0  0  0  0  0  0  0
   32.0600   36.5700   49.9900 C   0  0  0  0  0  0  0  0  0  0  0  0
   32.5200   35.8500   49.3000 H   0  0  0  0  0  0  0  0  0  0  0  0
   33.0800   36.7700   50.2200 H   0  0  0  0  0  0  0  0  0  0  0  0
   31.6500   37.8500   49.4200 C   0  0  0  0  0  0  0  0  0  0  0  0
   32.4400   37.7300   48.6600 H   0  0  0  0  0  0  0  0  0  0  0  0
   31.7300   38.5800   50.2400 H   0  0  0  0  0  0  0  0  0  0  0  0
   30.4500   38.5200   48.8500 C   0  0  0  0  0  0  0  0  0  0  0  0
   29.6900   38.5500   49.6500 H   0  0  0  0  0  0  0  0  0  0  0  0
   30.6400   39.5800   48.5400 H   0  0  0  0  0  0  0  0  0  0  0  0
   30.2400   37.7600   47.6300 C   0  0  0  0  0  0  0  0  0  0  0  0
   29.2500   38.0600   47.2600 H   0  0  0  0  0  0  0  0  0  0  0  0
   30.3200   36.6800   47.8500 H   0  0  0  0  0  0  0  0  0  0  0  0
   31.3400   37.8900   46.6200 C   0  0  0  0  0  0  0  0  0  0  0  0
   32.4200   37.6800   46.8000 H   0  0  0  0  0  0  0  0  0  0  0  0
   31.3500   38.9700   46.3800 H   0  0  0  0  0  0  0  0  0  0  0  0
   30.9700   36.7700   45.7100 C   0  0  0  0  0  0  0  0  0  0  0  0
   31.3200   35.8000   46.1100 H   0  0  0  0  0  0  0  0  0  0  0  0
   29.8700   36.7500   45.5700 H   0  0  0  0  0  0  0  0  0  0  0  0
   31.5800   37.0800   44.4400 C   0  0  0  0  0  0  0  0  0  0  0  0
   31.4200   36.1600   43.8400 H   0  0  0  0  0  0  0  0  0  0  0  0
   32.7000   37.0900   44.5100 H   0  0  0  0  0  0  0  0  0  0  0  0
   31.0300   38.4900   44.0500 C   0  0  0  0  0  0  0  0  0  0  0  0
   31.8800   38.7800   43.4800 H   0  0  0  0  0  0  0  0  0  0  0  0
   31.4000   39.3400   44.6400 H   0  0  0  0  0  0  0  0  0  0  0  0
   29.5000   39.0000   43.9200 C   0  0  0  0  0  0  0  0  0  0  0  0
   29.5400   40.0500   43.5900 H   0  0  0  0  0  0  0  0  0  0  0  0
   29.0800   38.8800   44.9400 H   0  0  0  0  0  0  0  0  0  0  0  0
   28.2600   38.3800   43.1200 C   0  0  0  0  0  0  0  0  0  0  0  0
   28.3700   37.3500   43.4800 H   0  0  0  0  0  0  0  0  0  0  0  0
   28.9000   38.1800   42.4000 H   0  0  0  0  0  0  0  0  0  0  0  0
   27.5300   38.7300   41.7100 C   0  0  0  0  0  0  0  0  0  0  0  0
   28.0200   38.3900   40.7500 H   0  0  0  0  0  0  0  0  0  0  0  0
   27.5000   39.7800   41.4100 H   0  0  0  0  0  0  0  0  0  0  0  0
   26.5900   38.1500   41.6400 H   0  0  0  0  0  0  0  0  0  0  0  0
  1  5  1  0  0  0  0
  2  1  1  0  0  0  0
  3  1  1  0  0  0  0
  4  1  1  0  0  0  0
  5  6  1  1  0  0  0
  5  7  1  0  0  0  0
  5 10  1  0  0  0  0
  7  8  1  0  0  0  0
  9  7  2  0  0  0  0
 10 11  1  0  0  0  0
 12 10  1  0  0  0  0
 13 17  1  6  0  0  0
 13 16  1  0  0  0  0
 13 14  1  0  0  0  0
 15 13  2  0  0  0  0
 16 10  1  0  0  0  0
 17 18  1  0  0  0  0
 18 20  1  0  0  0  0
 18 19  1  0  0  0  0
 21 29  1  0  0  0  0
 21 22  1  1  0  0  0
 21 18  1  0  0  0  0
 23 21  1  0  0  0  0
 24 23  1  0  0  0  0
 24 25  2  0  0  0  0
 26 38  1  0  0  0  0
 26 24  1  0  0  0  0
 27 26  1  0  0  0  0
 28 26  1  0  0  0  0
 29 30  1  0  0  0  0
 31 29  1  0  0  0  0
 32 29  1  0  0  0  0
 33 34  2  0  0  0  0
 33 32  1  0  0  0  0
 35 36  1  0  0  0  0
 35 33  1  0  0  0  0
 37 35  1  0  0  0  0
 38 40  1  0  0  0  0
 38 41  1  0  0  0  0
 39 38  1  0  0  0  0
 41 43  1  0  0  0  0
 41 42  1  0  0  0  0
 44 46  1  0  0  0  0
 44 41  1  0  0  0  0
 45 44  1  0  0  0  0
 47 48  1  0  0  0  0
 47 44  1  0  0  0  0
 49 47  1  0  0  0  0
 50 52  1  0  0  0  0
 50 47  1  0  0  0  0
 51 50  1  0  0  0  0
 53 54  1  0  0  0  0
 53 50  1  0  0  0  0
 55 53  1  0  0  0  0
 56 57  1  0  0  0  0
 56 58  1  0  0  0  0
 56 53  1  0  0  0  0
 59 61  1  0  0  0  0
 59 56  1  0  0  0  0
 60 59  1  0  0  0  0
 62 63  1  0  0  0  0
 62 59  1  0  0  0  0
 64 62  1  0  0  0  0
 65 68  1  0  0  0  0
 65 62  1  0  0  0  0
 66 65  1  0  0  0  0
 67 65  1  0  0  0  0
 68 69  1  0  0  0  0
 68 70  1  0  0  0  0
 71 74  1  0  0  0  0
 71 68  1  0  0  0  0
 72 71  1  0  0  0  0
 73 71  1  0  0  0  0
 75 76  1  0  0  0  0
 75 35  1  0  0  0  0
 77 75  1  0  0  0  0
 78 80  1  0  0  0  0
 78 75  1  0  0  0  0
 79 78  1  0  0  0  0
 81 78  1  0  0  0  0
 81 83  1  0  0  0  0
 82 81  1  0  0  0  0
 84 81  1  0  0  0  0
 84 85  1  0  0  0  0
 86 84  1  0  0  0  0
 87 89  1  0  0  0  0
 87 84  1  0  0  0  0
 88 87  1  0  0  0  0
 90 91  1  0  0  0  0
 90 87  1  0  0  0  0
 92 90  1  0  0  0  0
 93 94  1  0  0  0  0
 93 90  1  0  0  0  0
 95 93  1  0  0  0  0
 96 98  1  0  0  0  0
 96 93  1  0  0  0  0
 97 96  1  0  0  0  0
 99 96  1  0  0  0  0
 99101  1  0  0  0  0
100 99  1  0  0  0  0
102 99  1  0  0  0  0
102104  1  0  0  0  0
103102  1  0  0  0  0
105106  1  0  0  0  0
105102  1  0  0  0  0
107105  1  0  0  0  0
108105  1  0  0  0  0
109108  1  0  0  0  0
110108  1  0  0  0  0
111108  1  0  0  0  0
M  END
