SAPA
 OpenBabel02161614153D

122121  0  0  1  0  0  0  0  0999 V2000
   77.9300   66.6400   59.9000 P   0  0  2  0  0  0  0  0  0  0  0  0
   77.4300   65.2500   59.8200 O   0  0  0  0  0  0  0  0  0  0  0  0
   79.1600   66.8600   60.6600 O   0  0  0  0  0  0  0  0  0  0  0  0
   76.7600   67.4100   60.6700 O   0  0  0  0  0  0  0  0  0  0  0  0
   76.6500   67.1400   61.5800 H   0  0  0  0  0  0  0  0  0  0  0  0
   77.9600   67.3900   58.5000 O   0  0  0  0  0  0  0  0  0  0  0  0
   76.8600   67.3600   57.5900 C   0  0  0  0  0  0  0  0  0  0  0  0
   76.4200   66.3400   57.5500 H   0  0  0  0  0  0  0  0  0  0  0  0
   76.0700   68.1100   57.8900 H   0  0  0  0  0  0  0  0  0  0  0  0
   77.3000   67.7000   56.1400 C   0  0  2  0  0  0  0  0  0  0  0  0
   76.6100   67.1700   55.4300 H   0  0  0  0  0  0  0  0  0  0  0  0
   78.6700   67.3300   55.8900 O   0  0  0  0  0  0  0  0  0  0  0  0
   78.9300   66.0600   55.7300 C   0  0  0  0  0  0  0  0  0  0  0  0
   78.1100   65.1600   55.6600 O   0  0  0  0  0  0  0  0  0  0  0  0
   80.4500   65.9400   55.5100 C   0  0  0  0  0  0  0  0  0  0  0  0
   80.8800   66.7300   54.8800 H   0  0  0  0  0  0  0  0  0  0  0  0
   81.0500   66.2300   56.3500 H   0  0  0  0  0  0  0  0  0  0  0  0
   77.2000   69.2300   55.9400 C   0  0  0  0  0  0  0  0  0  0  0  0
   77.6500   69.7200   56.8300 H   0  0  0  0  0  0  0  0  0  0  0  0
   76.1600   69.6100   55.8700 H   0  0  0  0  0  0  0  0  0  0  0  0
   77.8600   69.5600   54.7300 O   0  0  0  0  0  0  0  0  0  0  0  0
   78.3500   70.7400   54.6400 C   0  0  0  0  0  0  0  0  0  0  0  0
   78.4400   71.5900   55.5100 O   0  0  0  0  0  0  0  0  0  0  0  0
   78.9600   70.7600   53.2500 C   0  0  0  0  0  0  0  0  0  0  0  0
   79.4400   71.7800   53.3900 H   0  0  0  0  0  0  0  0  0  0  0  0
   78.3700   71.1100   52.4100 H   0  0  0  0  0  0  0  0  0  0  0  0
   80.9200   64.5500   55.1300 C   0  0  0  0  0  0  0  0  0  0  0  0
   80.0700   63.8800   55.3300 H   0  0  0  0  0  0  0  0  0  0  0  0
   81.8200   64.2000   55.6800 H   0  0  0  0  0  0  0  0  0  0  0  0
   81.0900   64.8000   53.6900 C   0  0  0  0  0  0  0  0  0  0  0  0
   81.8500   65.4900   53.4300 H   0  0  0  0  0  0  0  0  0  0  0  0
   80.2300   65.3500   53.2700 H   0  0  0  0  0  0  0  0  0  0  0  0
   81.6700   63.9300   52.7900 C   0  0  0  0  0  0  0  0  0  0  0  0
   82.5000   63.1900   53.0900 H   0  0  0  0  0  0  0  0  0  0  0  0
   80.8000   63.7100   51.8500 C   0  0  0  0  0  0  0  0  0  0  0  0
   81.3700   62.7100   51.9500 H   0  0  0  0  0  0  0  0  0  0  0  0
   79.2100   63.8800   51.0600 C   0  0  0  0  0  0  0  0  0  0  0  0
   79.0100   64.8900   51.1000 H   0  0  0  0  0  0  0  0  0  0  0  0
   78.2600   63.4400   51.6500 H   0  0  0  0  0  0  0  0  0  0  0  0
   78.5700   63.1500   49.7300 C   0  0  0  0  0  0  0  0  0  0  0  0
   79.1900   62.7200   48.9300 H   0  0  0  0  0  0  0  0  0  0  0  0
   77.4400   62.8700   49.1700 C   0  0  0  0  0  0  0  0  0  0  0  0
   77.5100   62.5600   48.0900 H   0  0  0  0  0  0  0  0  0  0  0  0
   76.3500   63.4300   49.9600 C   0  0  0  0  0  0  0  0  0  0  0  0
   76.6100   63.8700   50.9400 H   0  0  0  0  0  0  0  0  0  0  0  0
   75.6200   62.6600   50.1900 H   0  0  0  0  0  0  0  0  0  0  0  0
   76.0000   64.6100   49.1300 C   0  0  0  0  0  0  0  0  0  0  0  0
   76.5200   65.5500   49.3800 H   0  0  0  0  0  0  0  0  0  0  0  0
   75.2400   64.5400   48.0500 C   0  0  0  0  0  0  0  0  0  0  0  0
   75.1600   65.4800   47.4900 H   0  0  0  0  0  0  0  0  0  0  0  0
   74.6000   63.2900   47.4800 C   0  0  0  0  0  0  0  0  0  0  0  0
   74.5300   62.4500   48.2200 H   0  0  0  0  0  0  0  0  0  0  0  0
   75.3100   62.9200   46.7300 H   0  0  0  0  0  0  0  0  0  0  0  0
   73.2800   63.4500   46.7800 C   0  0  0  0  0  0  0  0  0  0  0  0
   72.4200   62.9900   47.3000 H   0  0  0  0  0  0  0  0  0  0  0  0
   73.0500   64.1300   45.6400 C   0  0  0  0  0  0  0  0  0  0  0  0
   72.0200   64.1600   45.2500 H   0  0  0  0  0  0  0  0  0  0  0  0
   74.0800   64.8700   44.8200 C   0  0  0  0  0  0  0  0  0  0  0  0
   75.0900   64.7600   45.2800 H   0  0  0  0  0  0  0  0  0  0  0  0
   73.8300   65.9600   44.8300 H   0  0  0  0  0  0  0  0  0  0  0  0
   74.2400   64.4000   43.3800 C   0  0  0  0  0  0  0  0  0  0  0  0
   73.3600   64.6800   42.7500 H   0  0  0  0  0  0  0  0  0  0  0  0
   74.3600   63.3000   43.3100 H   0  0  0  0  0  0  0  0  0  0  0  0
   75.5000   64.9800   42.7800 C   0  0  0  0  0  0  0  0  0  0  0  0
   76.4200   64.7700   43.3500 H   0  0  0  0  0  0  0  0  0  0  0  0
   75.3900   66.0800   42.5900 H   0  0  0  0  0  0  0  0  0  0  0  0
   75.8200   64.3300   41.5100 C   0  0  0  0  0  0  0  0  0  0  0  0
   76.6400   65.0300   41.1500 H   0  0  0  0  0  0  0  0  0  0  0  0
   74.8700   64.3700   40.8900 H   0  0  0  0  0  0  0  0  0  0  0  0
   76.4500   62.9600   41.4200 C   0  0  0  0  0  0  0  0  0  0  0  0
   75.8100   62.1500   41.7900 H   0  0  0  0  0  0  0  0  0  0  0  0
   77.4600   62.9900   41.8200 H   0  0  0  0  0  0  0  0  0  0  0  0
   76.6900   62.7000   40.4000 H   0  0  0  0  0  0  0  0  0  0  0  0
   79.8400   69.3700   53.0600 C   0  0  0  0  0  0  0  0  0  0  0  0
   80.4300   68.9400   53.9000 H   0  0  0  0  0  0  0  0  0  0  0  0
   80.7700   69.4600   52.5300 H   0  0  0  0  0  0  0  0  0  0  0  0
   79.5400   68.2100   52.2200 C   0  0  0  0  0  0  0  0  0  0  0  0
   78.7500   67.9000   52.9100 H   0  0  0  0  0  0  0  0  0  0  0  0
   80.5100   67.6200   52.2800 H   0  0  0  0  0  0  0  0  0  0  0  0
   79.1000   68.5000   50.8100 C   0  0  0  0  0  0  0  0  0  0  0  0
   79.9000   68.8000   50.1100 H   0  0  0  0  0  0  0  0  0  0  0  0
   78.3200   69.2800   50.8400 H   0  0  0  0  0  0  0  0  0  0  0  0
   78.9500   67.2500   50.0200 C   0  0  0  0  0  0  0  0  0  0  0  0
   78.0500   66.8100   50.4500 H   0  0  0  0  0  0  0  0  0  0  0  0
   79.9000   66.6900   50.2600 H   0  0  0  0  0  0  0  0  0  0  0  0
   78.9100   67.5000   48.5100 C   0  0  0  0  0  0  0  0  0  0  0  0
   79.6500   68.2500   48.1600 H   0  0  0  0  0  0  0  0  0  0  0  0
   77.9100   67.9300   48.2900 H   0  0  0  0  0  0  0  0  0  0  0  0
   79.1900   66.1800   47.7800 C   0  0  0  0  0  0  0  0  0  0  0  0
   78.6300   65.3800   48.2900 H   0  0  0  0  0  0  0  0  0  0  0  0
   80.2600   65.8700   47.9100 H   0  0  0  0  0  0  0  0  0  0  0  0
   78.8000   66.1700   46.3000 C   0  0  0  0  0  0  0  0  0  0  0  0
   77.7000   66.0200   46.1600 H   0  0  0  0  0  0  0  0  0  0  0  0
   79.3500   65.3500   45.7900 H   0  0  0  0  0  0  0  0  0  0  0  0
   79.1700   67.4200   45.5300 C   0  0  0  0  0  0  0  0  0  0  0  0
   80.2800   67.5900   45.6000 H   0  0  0  0  0  0  0  0  0  0  0  0
   78.6600   68.3200   45.9300 H   0  0  0  0  0  0  0  0  0  0  0  0
   78.6900   67.2300   44.0900 C   0  0  0  0  0  0  0  0  0  0  0  0
   77.6100   67.3000   43.9400 H   0  0  0  0  0  0  0  0  0  0  0  0
   79.1800   66.3600   43.5600 H   0  0  0  0  0  0  0  0  0  0  0  0
   79.0300   68.4100   43.3400 C   0  0  0  0  0  0  0  0  0  0  0  0
   80.0100   68.0700   43.5500 H   0  0  0  0  0  0  0  0  0  0  0  0
   79.0000   69.3900   43.8700 H   0  0  0  0  0  0  0  0  0  0  0  0
   78.8200   68.3700   41.8500 C   0  0  0  0  0  0  0  0  0  0  0  0
   78.8200   69.4100   41.5300 H   0  0  0  0  0  0  0  0  0  0  0  0
   77.8000   68.4200   41.5500 H   0  0  0  0  0  0  0  0  0  0  0  0
   79.7200   67.3200   41.1200 C   0  0  0  0  0  0  0  0  0  0  0  0
   79.3700   66.3300   41.4200 H   0  0  0  0  0  0  0  0  0  0  0  0
   80.8200   67.3500   41.2500 H   0  0  0  0  0  0  0  0  0  0  0  0
   79.5500   67.3700   39.6500 C   0  0  0  0  0  0  0  0  0  0  0  0
   80.2800   68.0000   39.1600 H   0  0  0  0  0  0  0  0  0  0  0  0
   78.5200   67.6300   39.3800 H   0  0  0  0  0  0  0  0  0  0  0  0
   80.0200   66.2200   38.9400 C   0  0  0  0  0  0  0  0  0  0  0  0
   79.2700   65.4700   39.2600 H   0  0  0  0  0  0  0  0  0  0  0  0
   81.0900   66.0300   39.2100 H   0  0  0  0  0  0  0  0  0  0  0  0
   79.9600   66.3000   37.4700 C   0  0  0  0  0  0  0  0  0  0  0  0
   79.0000   66.4800   36.9800 H   0  0  0  0  0  0  0  0  0  0  0  0
   80.5100   65.3500   37.1900 H   0  0  0  0  0  0  0  0  0  0  0  0
   80.7600   67.0700   36.7100 C   0  0  0  0  0  0  0  0  0  0  0  0
   81.2600   67.9200   36.5900 H   0  0  0  0  0  0  0  0  0  0  0  0
   80.9400   66.5100   35.8700 H   0  0  0  0  0  0  0  0  0  0  0  0
   81.4800   66.9400   37.5400 H   0  0  0  0  0  0  0  0  0  0  0  0
  1  6  1  6  0  0  0
  1  3  1  0  0  0  0
  1  4  1  0  0  0  0
  2  1  2  0  0  0  0
  4  5  1  0  0  0  0
  7  9  1  0  0  0  0
  7  6  1  0  0  0  0
  8  7  1  0  0  0  0
 10 11  1  6  0  0  0
 10  7  1  0  0  0  0
 12 10  1  0  0  0  0
 13 12  1  0  0  0  0
 14 13  2  0  0  0  0
 15 13  1  0  0  0  0
 15 17  1  0  0  0  0
 16 15  1  0  0  0  0
 18 10  1  0  0  0  0
 18 19  1  0  0  0  0
 20 18  1  0  0  0  0
 21 18  1  0  0  0  0
 22 21  1  0  0  0  0
 22 23  2  0  0  0  0
 24 25  1  0  0  0  0
 24 22  1  0  0  0  0
 26 24  1  0  0  0  0
 27 28  1  0  0  0  0
 27 15  1  0  0  0  0
 27 29  1  0  0  0  0
 30 27  1  0  0  0  0
 31 30  1  0  0  0  0
 32 30  1  0  0  0  0
 33 34  1  0  0  0  0
 33 30  1  0  0  0  0
 35 36  1  0  0  0  0
 35 33  1  0  0  0  0
 37 38  1  0  0  0  0
 37 39  1  0  0  0  0
 37 35  1  0  0  0  0
 40 37  1  0  0  0  0
 41 40  1  0  0  0  0
 42 40  2  0  0  0  0
 42 44  1  0  0  0  0
 43 42  1  0  0  0  0
 44 46  1  0  0  0  0
 44 45  1  0  0  0  0
 47 48  1  0  0  0  0
 47 44  1  0  0  0  0
 49 47  2  0  0  0  0
 50 49  1  0  0  0  0
 51 49  1  0  0  0  0
 51 52  1  0  0  0  0
 53 51  1  0  0  0  0
 54 55  1  0  0  0  0
 54 51  1  0  0  0  0
 56 54  2  0  0  0  0
 57 56  1  0  0  0  0
 58 60  1  0  0  0  0
 58 59  1  0  0  0  0
 58 56  1  0  0  0  0
 61 58  1  0  0  0  0
 62 61  1  0  0  0  0
 63 61  1  0  0  0  0
 64 65  1  0  0  0  0
 64 61  1  0  0  0  0
 66 64  1  0  0  0  0
 67 64  1  0  0  0  0
 68 67  1  0  0  0  0
 69 67  1  0  0  0  0
 70 67  1  0  0  0  0
 70 71  1  0  0  0  0
 70 72  1  0  0  0  0
 73 70  1  0  0  0  0
 74 24  1  0  0  0  0
 74 75  1  0  0  0  0
 76 74  1  0  0  0  0
 77 79  1  0  0  0  0
 77 78  1  0  0  0  0
 77 74  1  0  0  0  0
 80 82  1  0  0  0  0
 80 77  1  0  0  0  0
 81 80  1  0  0  0  0
 83 85  1  0  0  0  0
 83 84  1  0  0  0  0
 83 80  1  0  0  0  0
 86 83  1  0  0  0  0
 87 86  1  0  0  0  0
 88 86  1  0  0  0  0
 89 91  1  0  0  0  0
 89 90  1  0  0  0  0
 89 86  1  0  0  0  0
 92 89  1  0  0  0  0
 93 92  1  0  0  0  0
 94 92  1  0  0  0  0
 95 96  1  0  0  0  0
 95 97  1  0  0  0  0
 95 92  1  0  0  0  0
 98 95  1  0  0  0  0
 99 98  1  0  0  0  0
100 98  1  0  0  0  0
101102  1  0  0  0  0
101103  1  0  0  0  0
101 98  1  0  0  0  0
104101  1  0  0  0  0
105104  1  0  0  0  0
106104  1  0  0  0  0
107109  1  0  0  0  0
107108  1  0  0  0  0
107104  1  0  0  0  0
110107  1  0  0  0  0
111110  1  0  0  0  0
112110  1  0  0  0  0
113115  1  0  0  0  0
113114  1  0  0  0  0
113110  1  0  0  0  0
116113  1  0  0  0  0
117116  1  0  0  0  0
118116  1  0  0  0  0
119116  1  0  0  0  0
119122  1  0  0  0  0
120119  1  0  0  0  0
121119  1  0  0  0  0
M  END
