DEPA
 OpenBabel02161614153D

144143  0  0  1  0  0  0  0  0999 V2000
   15.5800   14.9400   62.4400 P   0  0  1  0  0  0  0  0  0  0  0  0
   15.5400   14.4600   63.8400 O   0  0  0  0  0  0  0  0  0  0  0  0
   14.8700   14.2000   61.3900 O   0  0  0  0  0  0  0  0  0  0  0  0
   14.8600   16.3000   62.5400 O   0  0  0  0  0  0  0  0  0  0  0  0
   13.9100   16.1600   62.4800 H   0  0  0  0  0  0  0  0  0  0  0  0
   16.9700   15.3800   61.9600 O   0  0  0  0  0  0  0  0  0  0  0  0
   17.9800   15.8200   62.8400 C   0  0  0  0  0  0  0  0  0  0  0  0
   17.9100   15.3500   63.8600 H   0  0  0  0  0  0  0  0  0  0  0  0
   17.8900   16.9200   62.9600 H   0  0  0  0  0  0  0  0  0  0  0  0
   19.3400   15.4500   62.2000 C   0  0  2  0  0  0  0  0  0  0  0  0
   20.1500   15.9500   62.7700 H   0  0  0  0  0  0  0  0  0  0  0  0
   19.3500   15.8500   60.8200 O   0  0  0  0  0  0  0  0  0  0  0  0
   19.6100   17.0800   60.5500 C   0  0  0  0  0  0  0  0  0  0  0  0
   19.9700   17.9600   61.3400 O   0  0  0  0  0  0  0  0  0  0  0  0
   19.4500   17.3400   59.0600 C   0  0  0  0  0  0  0  0  0  0  0  0
   19.3800   16.3800   58.5200 H   0  0  0  0  0  0  0  0  0  0  0  0
   20.3700   17.8600   58.7300 H   0  0  0  0  0  0  0  0  0  0  0  0
   19.6300   13.9200   62.2200 C   0  0  0  0  0  0  0  0  0  0  0  0
   19.7700   13.6200   63.2800 H   0  0  0  0  0  0  0  0  0  0  0  0
   20.5900   13.7400   61.6800 H   0  0  0  0  0  0  0  0  0  0  0  0
   18.5700   13.1000   61.6700 O   0  0  0  0  0  0  0  0  0  0  0  0
   18.5900   12.9300   60.3500 C   0  0  0  0  0  0  0  0  0  0  0  0
   19.4900   13.2800   59.6100 O   0  0  0  0  0  0  0  0  0  0  0  0
   17.4100   12.0600   59.9200 C   0  0  0  0  0  0  0  0  0  0  0  0
   16.6100   12.1300   60.6900 H   0  0  0  0  0  0  0  0  0  0  0  0
   17.7800   11.0200   59.8800 H   0  0  0  0  0  0  0  0  0  0  0  0
   18.2200   18.2400   58.7600 C   0  0  0  0  0  0  0  0  0  0  0  0
   18.3200   18.5900   57.7000 H   0  0  0  0  0  0  0  0  0  0  0  0
   18.2000   19.1300   59.4200 H   0  0  0  0  0  0  0  0  0  0  0  0
   16.9000   17.4500   58.8600 C   0  0  0  0  0  0  0  0  0  0  0  0
   16.5600   17.3600   59.9100 H   0  0  0  0  0  0  0  0  0  0  0  0
   17.0900   16.4200   58.5000 H   0  0  0  0  0  0  0  0  0  0  0  0
   15.7600   17.9900   57.9900 C   0  0  0  0  0  0  0  0  0  0  0  0
   14.8500   17.3600   58.1500 H   0  0  0  0  0  0  0  0  0  0  0  0
   16.0400   17.9300   56.9200 H   0  0  0  0  0  0  0  0  0  0  0  0
   15.3800   19.4200   58.2800 C   0  0  0  0  0  0  0  0  0  0  0  0
   16.1800   20.1200   57.9500 H   0  0  0  0  0  0  0  0  0  0  0  0
   15.1900   19.5700   59.3700 H   0  0  0  0  0  0  0  0  0  0  0  0
   14.0900   19.7700   57.5600 C   0  0  0  0  0  0  0  0  0  0  0  0
   14.1400   20.8700   57.6700 H   0  0  0  0  0  0  0  0  0  0  0  0
   13.2000   19.3700   58.0900 H   0  0  0  0  0  0  0  0  0  0  0  0
   13.9300   19.5300   56.0500 C   0  0  0  0  0  0  0  0  0  0  0  0
   12.8500   19.6700   55.8000 H   0  0  0  0  0  0  0  0  0  0  0  0
   14.1900   18.4900   55.7600 H   0  0  0  0  0  0  0  0  0  0  0  0
   14.7000   20.5700   55.2300 C   0  0  0  0  0  0  0  0  0  0  0  0
   15.7800   20.5400   55.5200 H   0  0  0  0  0  0  0  0  0  0  0  0
   14.2800   21.5800   55.4600 H   0  0  0  0  0  0  0  0  0  0  0  0
   14.5800   20.3400   53.7200 C   0  0  0  0  0  0  0  0  0  0  0  0
   14.9000   21.2600   53.1900 H   0  0  0  0  0  0  0  0  0  0  0  0
   13.5100   20.1600   53.4600 H   0  0  0  0  0  0  0  0  0  0  0  0
   15.4500   19.1800   53.2500 C   0  0  0  0  0  0  0  0  0  0  0  0
   15.2100   18.2300   53.7800 H   0  0  0  0  0  0  0  0  0  0  0  0
   16.5000   19.4200   53.5200 H   0  0  0  0  0  0  0  0  0  0  0  0
   15.3100   18.9700   51.7500 C   0  0  0  0  0  0  0  0  0  0  0  0
   16.0000   18.1700   51.4200 H   0  0  0  0  0  0  0  0  0  0  0  0
   15.5400   19.9100   51.2400 H   0  0  0  0  0  0  0  0  0  0  0  0
   13.9900   18.6400   51.2800 C   0  0  0  0  0  0  0  0  0  0  0  0
   13.4000   18.0800   52.0300 H   0  0  0  0  0  0  0  0  0  0  0  0
   13.5200   18.9000   50.0500 C   0  0  0  0  0  0  0  0  0  0  0  0
   12.5100   18.6700   49.9300 H   0  0  0  0  0  0  0  0  0  0  0  0
   13.9600   19.4700   48.7500 C   0  0  0  0  0  0  0  0  0  0  0  0
   14.7300   20.1100   49.1100 H   0  0  0  0  0  0  0  0  0  0  0  0
   13.2100   20.2200   48.4300 H   0  0  0  0  0  0  0  0  0  0  0  0
   14.1600   18.5400   47.4600 C   0  0  0  0  0  0  0  0  0  0  0  0
   13.2100   17.9900   47.3400 H   0  0  0  0  0  0  0  0  0  0  0  0
   14.9500   17.7900   47.6800 H   0  0  0  0  0  0  0  0  0  0  0  0
   14.3600   19.1200   46.0000 C   0  0  0  0  0  0  0  0  0  0  0  0
   15.2200   19.6400   45.6700 H   0  0  0  0  0  0  0  0  0  0  0  0
   13.6700   19.9600   45.8200 H   0  0  0  0  0  0  0  0  0  0  0  0
   14.9000   18.2400   44.8700 C   0  0  0  0  0  0  0  0  0  0  0  0
   15.0400   17.2300   45.2700 H   0  0  0  0  0  0  0  0  0  0  0  0
   15.8700   18.5200   44.3500 H   0  0  0  0  0  0  0  0  0  0  0  0
   13.8900   18.4500   43.8100 C   0  0  0  0  0  0  0  0  0  0  0  0
   14.2600   18.3500   42.7700 H   0  0  0  0  0  0  0  0  0  0  0  0
   13.4600   19.4900   43.9100 H   0  0  0  0  0  0  0  0  0  0  0  0
   12.8100   17.5000   44.1400 C   0  0  0  0  0  0  0  0  0  0  0  0
   12.5100   17.6400   45.1900 H   0  0  0  0  0  0  0  0  0  0  0  0
   13.2000   16.4600   44.0700 H   0  0  0  0  0  0  0  0  0  0  0  0
   11.7400   17.8800   43.1500 C   0  0  0  0  0  0  0  0  0  0  0  0
   11.8000   18.9400   42.8600 H   0  0  0  0  0  0  0  0  0  0  0  0
   10.7700   17.9300   43.6500 H   0  0  0  0  0  0  0  0  0  0  0  0
   11.8800   17.0200   41.9000 C   0  0  0  0  0  0  0  0  0  0  0  0
   10.9100   16.6400   41.5500 H   0  0  0  0  0  0  0  0  0  0  0  0
   12.4100   17.6000   41.1200 H   0  0  0  0  0  0  0  0  0  0  0  0
   12.5600   16.1600   42.0700 H   0  0  0  0  0  0  0  0  0  0  0  0
   16.8600   12.5000   58.5500 C   0  0  0  0  0  0  0  0  0  0  0  0
   17.6200   12.3400   57.7600 H   0  0  0  0  0  0  0  0  0  0  0  0
   16.6200   13.5900   58.6200 H   0  0  0  0  0  0  0  0  0  0  0  0
   15.5500   11.7900   58.1800 C   0  0  0  0  0  0  0  0  0  0  0  0
   14.8800   11.8300   59.0800 H   0  0  0  0  0  0  0  0  0  0  0  0
   15.7400   10.7100   57.9800 H   0  0  0  0  0  0  0  0  0  0  0  0
   14.8000   12.4500   57.0100 C   0  0  0  0  0  0  0  0  0  0  0  0
   14.5700   13.4900   57.3200 H   0  0  0  0  0  0  0  0  0  0  0  0
   13.8300   11.9100   56.8800 H   0  0  0  0  0  0  0  0  0  0  0  0
   15.5400   12.4900   55.6700 C   0  0  0  0  0  0  0  0  0  0  0  0
   15.3100   11.5300   55.1400 H   0  0  0  0  0  0  0  0  0  0  0  0
   16.6400   12.5400   55.7900 H   0  0  0  0  0  0  0  0  0  0  0  0
   15.1400   13.6600   54.7600 C   0  0  0  0  0  0  0  0  0  0  0  0
   15.5000   14.6300   55.1400 H   0  0  0  0  0  0  0  0  0  0  0  0
   14.0700   13.7700   54.9000 H   0  0  0  0  0  0  0  0  0  0  0  0
   15.5200   13.3400   53.3100 C   0  0  0  0  0  0  0  0  0  0  0  0
   14.9000   13.7600   52.5100 H   0  0  0  0  0  0  0  0  0  0  0  0
   15.4100   12.2500   53.1300 H   0  0  0  0  0  0  0  0  0  0  0  0
   16.9100   13.8300   52.9300 C   0  0  0  0  0  0  0  0  0  0  0  0
   17.0700   13.5000   51.8800 H   0  0  0  0  0  0  0  0  0  0  0  0
   17.6700   13.3400   53.5700 H   0  0  0  0  0  0  0  0  0  0  0  0
   17.0600   15.3500   53.0000 C   0  0  0  0  0  0  0  0  0  0  0  0
   17.0500   15.7000   54.0600 H   0  0  0  0  0  0  0  0  0  0  0  0
   16.2000   15.8500   52.5100 H   0  0  0  0  0  0  0  0  0  0  0  0
   18.3700   15.8000   52.3600 C   0  0  0  0  0  0  0  0  0  0  0  0
   19.2500   15.3700   52.8800 H   0  0  0  0  0  0  0  0  0  0  0  0
   18.4500   16.8800   52.5900 H   0  0  0  0  0  0  0  0  0  0  0  0
   18.4900   15.4600   50.8400 C   0  0  0  0  0  0  0  0  0  0  0  0
   18.7100   14.3800   50.7100 H   0  0  0  0  0  0  0  0  0  0  0  0
   19.3900   16.0000   50.4600 H   0  0  0  0  0  0  0  0  0  0  0  0
   17.2600   15.8800   50.0600 C   0  0  0  0  0  0  0  0  0  0  0  0
   16.9300   16.8600   50.3200 H   0  0  0  0  0  0  0  0  0  0  0  0
   16.3400   15.2700   49.3100 C   0  0  0  0  0  0  0  0  0  0  0  0
   15.5900   15.9200   48.8200 H   0  0  0  0  0  0  0  0  0  0  0  0
   16.2600   13.8300   48.9800 C   0  0  0  0  0  0  0  0  0  0  0  0
   15.2900   13.4600   49.3600 H   0  0  0  0  0  0  0  0  0  0  0  0
   17.0600   13.2800   49.5200 H   0  0  0  0  0  0  0  0  0  0  0  0
   16.3800   13.5500   47.4800 C   0  0  0  0  0  0  0  0  0  0  0  0
   16.4100   12.4400   47.3700 H   0  0  0  0  0  0  0  0  0  0  0  0
   17.3700   13.9300   47.1300 H   0  0  0  0  0  0  0  0  0  0  0  0
   15.2900   14.1400   46.5800 C   0  0  0  0  0  0  0  0  0  0  0  0
   15.1100   15.2200   46.7500 H   0  0  0  0  0  0  0  0  0  0  0  0
   14.3200   13.6100   46.7500 H   0  0  0  0  0  0  0  0  0  0  0  0
   15.7100   13.9500   45.1200 C   0  0  0  0  0  0  0  0  0  0  0  0
   14.8200   13.9100   44.4400 H   0  0  0  0  0  0  0  0  0  0  0  0
   16.2900   13.0100   45.0600 H   0  0  0  0  0  0  0  0  0  0  0  0
   16.7100   14.9600   44.6000 C   0  0  0  0  0  0  0  0  0  0  0  0
   17.6100   15.0400   45.2400 H   0  0  0  0  0  0  0  0  0  0  0  0
   16.2300   15.9500   44.5600 H   0  0  0  0  0  0  0  0  0  0  0  0
   17.1000   14.6100   43.1800 C   0  0  0  0  0  0  0  0  0  0  0  0
   16.2000   14.2500   42.6200 H   0  0  0  0  0  0  0  0  0  0  0  0
   17.8700   13.8100   43.1400 H   0  0  0  0  0  0  0  0  0  0  0  0
   17.5600   15.8500   42.4500 C   0  0  0  0  0  0  0  0  0  0  0  0
   18.4700   16.2800   42.9300 H   0  0  0  0  0  0  0  0  0  0  0  0
   16.7600   16.6200   42.5300 H   0  0  0  0  0  0  0  0  0  0  0  0
   17.7600   15.5100   40.9900 C   0  0  0  0  0  0  0  0  0  0  0  0
   17.4500   16.4000   40.4500 H   0  0  0  0  0  0  0  0  0  0  0  0
   18.8100   15.2300   40.7700 H   0  0  0  0  0  0  0  0  0  0  0  0
   17.0700   14.7300   40.6200 H   0  0  0  0  0  0  0  0  0  0  0  0
  1  3  2  6  0  0  0
  1  4  1  0  0  0  0
  1  2  1  0  0  0  0
  5  4  1  0  0  0  0
  6  1  1  0  0  0  0
  6  7  1  0  0  0  0
  7  9  1  0  0  0  0
  7  8  1  0  0  0  0
 10 18  1  0  0  0  0
 10 11  1  1  0  0  0
 10  7  1  0  0  0  0
 12 10  1  0  0  0  0
 13 12  1  0  0  0  0
 13 14  2  0  0  0  0
 15 13  1  0  0  0  0
 16 15  1  0  0  0  0
 17 15  1  0  0  0  0
 18 19  1  0  0  0  0
 20 18  1  0  0  0  0
 21 18  1  0  0  0  0
 22 21  1  0  0  0  0
 23 22  2  0  0  0  0
 24 22  1  0  0  0  0
 24 25  1  0  0  0  0
 26 24  1  0  0  0  0
 27 30  1  0  0  0  0
 27 15  1  0  0  0  0
 27 29  1  0  0  0  0
 28 27  1  0  0  0  0
 30 31  1  0  0  0  0
 32 30  1  0  0  0  0
 33 34  1  0  0  0  0
 33 36  1  0  0  0  0
 33 30  1  0  0  0  0
 35 33  1  0  0  0  0
 36 38  1  0  0  0  0
 37 36  1  0  0  0  0
 39 40  1  0  0  0  0
 39 41  1  0  0  0  0
 39 36  1  0  0  0  0
 42 39  1  0  0  0  0
 43 42  1  0  0  0  0
 44 42  1  0  0  0  0
 45 47  1  0  0  0  0
 45 46  1  0  0  0  0
 45 42  1  0  0  0  0
 48 45  1  0  0  0  0
 49 48  1  0  0  0  0
 50 48  1  0  0  0  0
 51 53  1  0  0  0  0
 51 48  1  0  0  0  0
 51 52  1  0  0  0  0
 54 51  1  0  0  0  0
 55 54  1  0  0  0  0
 56 54  1  0  0  0  0
 57 54  1  0  0  0  0
 57 58  1  0  0  0  0
 59 57  2  0  0  0  0
 60 59  1  0  0  0  0
 61 62  1  0  0  0  0
 61 59  1  0  0  0  0
 63 61  1  0  0  0  0
 64 66  1  0  0  0  0
 64 61  1  0  0  0  0
 65 64  1  0  0  0  0
 67 64  1  0  0  0  0
 68 67  1  0  0  0  0
 69 67  1  0  0  0  0
 70 71  1  0  0  0  0
 70 67  1  0  0  0  0
 72 70  1  0  0  0  0
 73 75  1  0  0  0  0
 73 76  1  0  0  0  0
 73 70  1  0  0  0  0
 74 73  1  0  0  0  0
 76 77  1  0  0  0  0
 78 76  1  0  0  0  0
 79 81  1  0  0  0  0
 79 76  1  0  0  0  0
 80 79  1  0  0  0  0
 82 85  1  0  0  0  0
 82 79  1  0  0  0  0
 83 82  1  0  0  0  0
 84 82  1  0  0  0  0
 86 88  1  0  0  0  0
 86 24  1  0  0  0  0
 87 86  1  0  0  0  0
 89 86  1  0  0  0  0
 89 90  1  0  0  0  0
 91 89  1  0  0  0  0
 92 93  1  0  0  0  0
 92 89  1  0  0  0  0
 94 92  1  0  0  0  0
 95 97  1  0  0  0  0
 95 92  1  0  0  0  0
 96 95  1  0  0  0  0
 98100  1  0  0  0  0
 98 99  1  0  0  0  0
 98 95  1  0  0  0  0
101 98  1  0  0  0  0
102101  1  0  0  0  0
103101  1  0  0  0  0
104107  1  0  0  0  0
104101  1  0  0  0  0
104106  1  0  0  0  0
105104  1  0  0  0  0
107108  1  0  0  0  0
109107  1  0  0  0  0
110112  1  0  0  0  0
110111  1  0  0  0  0
110107  1  0  0  0  0
113110  1  0  0  0  0
114113  1  0  0  0  0
115113  1  0  0  0  0
116117  1  0  0  0  0
116113  1  0  0  0  0
118116  1  0  0  0  0
119118  1  0  0  0  0
120118  1  0  0  0  0
120121  1  0  0  0  0
120122  1  0  0  0  0
123120  1  0  0  0  0
124123  1  0  0  0  0
125123  1  0  0  0  0
126127  1  0  0  0  0
126128  1  0  0  0  0
126123  1  0  0  0  0
129126  1  0  0  0  0
130129  1  0  0  0  0
131129  1  0  0  0  0
132129  1  0  0  0  0
132133  1  0  0  0  0
134132  1  0  0  0  0
135132  1  0  0  0  0
136135  1  0  0  0  0
137135  1  0  0  0  0
138140  1  0  0  0  0
138139  1  0  0  0  0
138135  1  0  0  0  0
141138  1  0  0  0  0
142141  1  0  0  0  0
143141  1  0  0  0  0
144141  1  0  0  0  0
M  END
