CER180
 OpenBabel02161614153D

111110  0  0  1  0  0  0  0  0999 V2000
   66.9500    9.3400   60.4200 O   0  0  0  0  0  0  0  0  0  0  0  0
   66.0400    9.0400   60.3000 H   0  0  0  0  0  0  0  0  0  0  0  0
   67.5900    8.8100   59.2700 C   0  0  0  0  0  0  0  0  0  0  0  0
   68.7000    8.9200   59.3100 H   0  0  0  0  0  0  0  0  0  0  0  0
   67.3300    7.7300   59.2500 H   0  0  0  0  0  0  0  0  0  0  0  0
   67.4900    8.5900   56.8000 N   0  0  0  0  0  0  0  0  0  0  0  0
   68.1100    9.0400   56.1800 H   0  0  0  0  0  0  0  0  0  0  0  0
   67.0800    9.4100   57.9300 C   0  0  2  0  0  0  0  0  0  0  0  0
   65.9600    9.4700   57.9300 H   0  0  0  0  0  0  0  0  0  0  0  0
   67.5900   10.8400   57.7800 C   0  0  2  0  0  0  0  0  0  0  0  0
   68.7000   10.7900   57.7700 H   0  0  0  0  0  0  0  0  0  0  0  0
   67.1300   11.7200   58.7700 O   0  0  0  0  0  0  0  0  0  0  0  0
   66.6800   11.1500   59.3900 H   0  0  0  0  0  0  0  0  0  0  0  0
   67.1300   11.2500   56.4400 C   0  0  0  0  0  0  0  0  0  0  0  0
   66.0400   11.3100   56.2400 H   0  0  0  0  0  0  0  0  0  0  0  0
   68.0400   11.5200   55.5000 C   0  0  0  0  0  0  0  0  0  0  0  0
   69.0900   11.6800   55.6800 H   0  0  0  0  0  0  0  0  0  0  0  0
   67.7100   11.8800   54.1700 C   0  0  0  0  0  0  0  0  0  0  0  0
   67.8900   12.9800   54.0000 H   0  0  0  0  0  0  0  0  0  0  0  0
   66.6100   11.5300   54.1700 H   0  0  0  0  0  0  0  0  0  0  0  0
   68.3400   11.2600   52.9100 C   0  0  0  0  0  0  0  0  0  0  0  0
   67.8100   10.2900   52.8100 H   0  0  0  0  0  0  0  0  0  0  0  0
   69.4100   11.1600   53.0200 H   0  0  0  0  0  0  0  0  0  0  0  0
   68.4100   11.9000   51.5000 C   0  0  0  0  0  0  0  0  0  0  0  0
   68.7000   12.8100   51.0700 H   0  0  0  0  0  0  0  0  0  0  0  0
   67.5800   12.5800   51.4100 H   0  0  0  0  0  0  0  0  0  0  0  0
   68.9000   10.8900   50.4200 C   0  0  0  0  0  0  0  0  0  0  0  0
   68.2800    9.9700   50.4200 H   0  0  0  0  0  0  0  0  0  0  0  0
   69.9400   10.6500   50.5600 H   0  0  0  0  0  0  0  0  0  0  0  0
   69.2400   11.4000   49.0100 C   0  0  0  0  0  0  0  0  0  0  0  0
   69.5000   12.4600   49.1000 H   0  0  0  0  0  0  0  0  0  0  0  0
   68.3800   11.5700   48.5400 H   0  0  0  0  0  0  0  0  0  0  0  0
   68.8100   10.6700   47.6900 C   0  0  0  0  0  0  0  0  0  0  0  0
   68.8300   11.2100   46.7500 H   0  0  0  0  0  0  0  0  0  0  0  0
   67.8500   10.1300   47.5800 H   0  0  0  0  0  0  0  0  0  0  0  0
   70.0200   10.1500   47.2400 C   0  0  0  0  0  0  0  0  0  0  0  0
   70.1300    9.5600   48.1600 H   0  0  0  0  0  0  0  0  0  0  0  0
   70.6900   11.0600   47.1700 H   0  0  0  0  0  0  0  0  0  0  0  0
   69.8100    9.4100   45.9700 C   0  0  0  0  0  0  0  0  0  0  0  0
   69.5900   10.0900   45.1100 H   0  0  0  0  0  0  0  0  0  0  0  0
   68.9100    8.7500   46.1000 H   0  0  0  0  0  0  0  0  0  0  0  0
   71.0900    8.6400   45.8200 C   0  0  0  0  0  0  0  0  0  0  0  0
   71.0000    7.7200   46.4300 H   0  0  0  0  0  0  0  0  0  0  0  0
   71.9400    9.2200   46.2500 H   0  0  0  0  0  0  0  0  0  0  0  0
   71.4200    8.2800   44.3900 C   0  0  0  0  0  0  0  0  0  0  0  0
   72.3000    7.6000   44.4700 H   0  0  0  0  0  0  0  0  0  0  0  0
   71.7100    9.1800   43.7900 H   0  0  0  0  0  0  0  0  0  0  0  0
   70.3100    7.4900   43.7200 C   0  0  0  0  0  0  0  0  0  0  0  0
   69.6600    8.1600   43.1100 H   0  0  0  0  0  0  0  0  0  0  0  0
   69.7000    6.9800   44.5000 H   0  0  0  0  0  0  0  0  0  0  0  0
   70.9400    6.4400   42.8000 C   0  0  0  0  0  0  0  0  0  0  0  0
   71.6400    5.7900   43.3800 H   0  0  0  0  0  0  0  0  0  0  0  0
   71.5100    7.0600   42.0800 H   0  0  0  0  0  0  0  0  0  0  0  0
   69.9400    5.6200   42.0300 C   0  0  0  0  0  0  0  0  0  0  0  0
   70.3600    4.7300   41.5400 H   0  0  0  0  0  0  0  0  0  0  0  0
   69.3500    6.2200   41.3100 H   0  0  0  0  0  0  0  0  0  0  0  0
   69.1800    5.2300   42.7000 H   0  0  0  0  0  0  0  0  0  0  0  0
   67.1600    7.3400   56.5700 C   0  0  0  0  0  0  0  0  0  0  0  0
   66.4700    6.7500   57.3500 O   0  0  0  0  0  0  0  0  0  0  0  0
   67.7000    6.7100   55.3400 C   0  0  0  0  0  0  0  0  0  0  0  0
   67.5300    5.6100   55.3400 H   0  0  0  0  0  0  0  0  0  0  0  0
   68.8000    6.9000   55.3200 H   0  0  0  0  0  0  0  0  0  0  0  0
   66.9600    7.2800   54.1300 C   0  0  0  0  0  0  0  0  0  0  0  0
   66.9600    8.4000   54.1200 H   0  0  0  0  0  0  0  0  0  0  0  0
   65.9000    6.9600   54.1800 H   0  0  0  0  0  0  0  0  0  0  0  0
   67.6500    6.7700   52.8600 C   0  0  0  0  0  0  0  0  0  0  0  0
   67.4800    5.6800   52.7900 H   0  0  0  0  0  0  0  0  0  0  0  0
   68.7400    6.9300   52.9900 H   0  0  0  0  0  0  0  0  0  0  0  0
   67.1900    7.4900   51.6000 C   0  0  0  0  0  0  0  0  0  0  0  0
   67.7300    7.1500   50.6900 H   0  0  0  0  0  0  0  0  0  0  0  0
   67.4100    8.5600   51.7500 H   0  0  0  0  0  0  0  0  0  0  0  0
   65.6900    7.3600   51.3700 C   0  0  0  0  0  0  0  0  0  0  0  0
   65.1700    7.9500   52.1500 H   0  0  0  0  0  0  0  0  0  0  0  0
   65.3800    6.3000   51.5100 H   0  0  0  0  0  0  0  0  0  0  0  0
   65.2800    7.7900   49.9700 C   0  0  0  0  0  0  0  0  0  0  0  0
   65.8000    8.6800   49.5800 H   0  0  0  0  0  0  0  0  0  0  0  0
   64.2100    8.0300   50.0700 H   0  0  0  0  0  0  0  0  0  0  0  0
   65.5300    6.6400   49.0400 C   0  0  0  0  0  0  0  0  0  0  0  0
   64.7200    5.9600   49.2000 H   0  0  0  0  0  0  0  0  0  0  0  0
   66.4400    6.0800   49.2000 H   0  0  0  0  0  0  0  0  0  0  0  0
   65.5200    6.8700   47.5900 C   0  0  0  0  0  0  0  0  0  0  0  0
   66.1600    7.5500   47.0400 H   0  0  0  0  0  0  0  0  0  0  0  0
   64.7500    7.5600   47.6800 H   0  0  0  0  0  0  0  0  0  0  0  0
   65.5200    5.6000   46.8200 C   0  0  0  0  0  0  0  0  0  0  0  0
   64.8600    4.7200   46.9200 H   0  0  0  0  0  0  0  0  0  0  0  0
   66.4000    5.0500   46.7100 H   0  0  0  0  0  0  0  0  0  0  0  0
   65.2000    5.7800   45.5200 C   0  0  0  0  0  0  0  0  0  0  0  0
   64.1800    5.9300   45.9300 H   0  0  0  0  0  0  0  0  0  0  0  0
   65.0000    4.7100   45.2200 H   0  0  0  0  0  0  0  0  0  0  0  0
   65.9500    6.7300   44.3800 C   0  0  0  0  0  0  0  0  0  0  0  0
   66.8400    6.1900   44.2200 H   0  0  0  0  0  0  0  0  0  0  0  0
   66.1500    7.5900   44.9100 H   0  0  0  0  0  0  0  0  0  0  0  0
   65.6100    7.1300   42.8100 C   0  0  0  0  0  0  0  0  0  0  0  0
   64.5500    7.4800   42.6200 H   0  0  0  0  0  0  0  0  0  0  0  0
   65.7100    6.3900   42.0300 H   0  0  0  0  0  0  0  0  0  0  0  0
   66.5900    7.7800   41.9000 C   0  0  0  0  0  0  0  0  0  0  0  0
   67.4700    7.1400   41.8500 H   0  0  0  0  0  0  0  0  0  0  0  0
   66.9800    8.4900   42.5500 H   0  0  0  0  0  0  0  0  0  0  0  0
   65.9400    8.3200   40.5900 C   0  0  0  0  0  0  0  0  0  0  0  0
   65.1000    9.0600   40.5100 H   0  0  0  0  0  0  0  0  0  0  0  0
   65.3300    7.6500   40.1700 H   0  0  0  0  0  0  0  0  0  0  0  0
   66.9200    8.8600   39.6600 C   0  0  0  0  0  0  0  0  0  0  0  0
   67.7000    8.0600   39.7300 H   0  0  0  0  0  0  0  0  0  0  0  0
   67.3000    9.8300   40.0400 H   0  0  0  0  0  0  0  0  0  0  0  0
   66.0800    9.0900   38.4200 C   0  0  0  0  0  0  0  0  0  0  0  0
   65.1900    8.4700   38.3200 H   0  0  0  0  0  0  0  0  0  0  0  0
   66.4400    8.5200   37.6300 H   0  0  0  0  0  0  0  0  0  0  0  0
   65.6000   10.4800   38.0400 C   0  0  0  0  0  0  0  0  0  0  0  0
   65.3800   10.5100   36.9500 H   0  0  0  0  0  0  0  0  0  0  0  0
   66.1800   11.3700   38.1500 H   0  0  0  0  0  0  0  0  0  0  0  0
   64.9600   10.8900   38.8200 H   0  0  0  0  0  0  0  0  0  0  0  0
  2  1  1  0  0  0  0
  3  4  1  0  0  0  0
  3  1  1  0  0  0  0
  5  3  1  0  0  0  0
  6  8  1  0  0  0  0
  7  6  1  0  0  0  0
  8  9  1  1  0  0  0
  8  3  1  0  0  0  0
 10 11  1  1  0  0  0
 10  8  1  0  0  0  0
 10 12  1  0  0  0  0
 12 13  1  0  0  0  0
 14 10  1  0  0  0  0
 15 14  1  0  0  0  0
 16 17  1  0  0  0  0
 16 14  2  0  0  0  0
 18 20  1  0  0  0  0
 18 16  1  0  0  0  0
 19 18  1  0  0  0  0
 21 23  1  0  0  0  0
 21 18  1  0  0  0  0
 22 21  1  0  0  0  0
 24 21  1  0  0  0  0
 25 24  1  0  0  0  0
 26 24  1  0  0  0  0
 27 29  1  0  0  0  0
 27 24  1  0  0  0  0
 28 27  1  0  0  0  0
 30 31  1  0  0  0  0
 30 27  1  0  0  0  0
 32 30  1  0  0  0  0
 33 30  1  0  0  0  0
 34 33  1  0  0  0  0
 35 33  1  0  0  0  0
 36 33  1  0  0  0  0
 36 37  1  0  0  0  0
 38 36  1  0  0  0  0
 39 41  1  0  0  0  0
 39 36  1  0  0  0  0
 40 39  1  0  0  0  0
 42 39  1  0  0  0  0
 42 44  1  0  0  0  0
 42 43  1  0  0  0  0
 45 46  1  0  0  0  0
 45 42  1  0  0  0  0
 47 45  1  0  0  0  0
 48 45  1  0  0  0  0
 48 50  1  0  0  0  0
 49 48  1  0  0  0  0
 51 52  1  0  0  0  0
 51 48  1  0  0  0  0
 53 51  1  0  0  0  0
 54 57  1  0  0  0  0
 54 51  1  0  0  0  0
 55 54  1  0  0  0  0
 56 54  1  0  0  0  0
 58  6  1  0  0  0  0
 58 59  2  0  0  0  0
 60 58  1  0  0  0  0
 61 60  1  0  0  0  0
 62 60  1  0  0  0  0
 63 65  1  0  0  0  0
 63 60  1  0  0  0  0
 64 63  1  0  0  0  0
 66 68  1  0  0  0  0
 66 63  1  0  0  0  0
 67 66  1  0  0  0  0
 69 71  1  0  0  0  0
 69 66  1  0  0  0  0
 70 69  1  0  0  0  0
 72 74  1  0  0  0  0
 72 69  1  0  0  0  0
 72 73  1  0  0  0  0
 75 77  1  0  0  0  0
 75 72  1  0  0  0  0
 76 75  1  0  0  0  0
 78 79  1  0  0  0  0
 78 80  1  0  0  0  0
 78 75  1  0  0  0  0
 81 83  1  0  0  0  0
 81 78  1  0  0  0  0
 82 81  1  0  0  0  0
 84 85  1  0  0  0  0
 84 81  1  0  0  0  0
 86 84  1  0  0  0  0
 87 88  1  0  0  0  0
 87 84  1  0  0  0  0
 89 87  1  0  0  0  0
 90 92  1  0  0  0  0
 90 87  1  0  0  0  0
 91 90  1  0  0  0  0
 93 90  1  0  0  0  0
 94 93  1  0  0  0  0
 95 93  1  0  0  0  0
 96 98  1  0  0  0  0
 96 93  1  0  0  0  0
 97 96  1  0  0  0  0
 99 96  1  0  0  0  0
100 99  1  0  0  0  0
101 99  1  0  0  0  0
102103  1  0  0  0  0
102104  1  0  0  0  0
102 99  1  0  0  0  0
105102  1  0  0  0  0
106105  1  0  0  0  0
107105  1  0  0  0  0
108110  1  0  0  0  0
108105  1  0  0  0  0
108111  1  0  0  0  0
109108  1  0  0  0  0
M  END
