DOPS
 OpenBabel02161614153D

131130  0  0  1  0  0  0  0  0999 V2000
   26.6400    5.9400   56.7300 N   0  0  0  0  0  0  0  0  0  0  0  0
   25.6200    6.0400   56.8500 H   0  0  0  0  0  0  0  0  0  0  0  0
   27.0100    6.2600   55.8200 H   0  0  0  0  0  0  0  0  0  0  0  0
   26.8800    4.9200   56.8600 H   0  0  0  0  0  0  0  0  0  0  0  0
   27.2600    6.7800   57.8100 C   0  0  2  0  0  0  0  0  0  0  0  0
   26.8600    7.7800   57.7200 H   0  0  0  0  0  0  0  0  0  0  0  0
   28.7900    6.8500   57.8000 C   0  0  0  0  0  0  0  0  0  0  0  0
   29.3300    6.1600   56.9000 O   0  0  0  0  0  0  0  0  0  0  0  0
   29.4100    7.4600   58.7100 O   0  0  0  0  0  0  0  0  0  0  0  0
   26.8400    6.1700   59.1500 C   0  0  0  0  0  0  0  0  0  0  0  0
   27.2000    6.8500   59.9600 H   0  0  0  0  0  0  0  0  0  0  0  0
   27.3700    5.1900   59.2700 H   0  0  0  0  0  0  0  0  0  0  0  0
   24.7300    4.7000   59.5600 P   0  0  2  0  0  0  0  0  0  0  0  0
   23.3000    4.6500   59.2600 O   0  0  0  0  0  0  0  0  0  0  0  0
   25.2500    4.3400   60.9000 O   0  0  0  0  0  0  0  0  0  0  0  0
   25.4100    6.0700   59.1800 O   0  0  0  0  0  0  0  0  0  0  0  0
   25.4400    3.8500   58.4600 O   0  0  0  0  0  0  0  0  0  0  0  0
   25.9800    2.6100   58.9400 C   0  0  0  0  0  0  0  0  0  0  0  0
   25.1800    1.9500   59.3700 H   0  0  0  0  0  0  0  0  0  0  0  0
   26.7600    2.8000   59.7100 H   0  0  0  0  0  0  0  0  0  0  0  0
   26.7100    1.8900   57.8100 C   0  0  2  0  0  0  0  0  0  0  0  0
   27.5100    1.2500   58.2500 H   0  0  0  0  0  0  0  0  0  0  0  0
   27.2000    2.8700   56.8800 O   0  0  0  0  0  0  0  0  0  0  0  0
   28.1200    2.3400   56.1100 C   0  0  0  0  0  0  0  0  0  0  0  0
   28.6600    1.2700   56.2700 O   0  0  0  0  0  0  0  0  0  0  0  0
   28.4600    3.3300   55.0900 C   0  0  0  0  0  0  0  0  0  0  0  0
   28.1500    4.3500   55.3800 H   0  0  0  0  0  0  0  0  0  0  0  0
   28.0300    3.0500   54.1100 H   0  0  0  0  0  0  0  0  0  0  0  0
   25.7400    0.9800   57.0800 C   0  0  0  0  0  0  0  0  0  0  0  0
   25.3400    0.2500   57.8000 H   0  0  0  0  0  0  0  0  0  0  0  0
   26.2900    0.4300   56.2800 H   0  0  0  0  0  0  0  0  0  0  0  0
   24.6800    1.8100   56.6300 O   0  0  0  0  0  0  0  0  0  0  0  0
   24.7900    2.2400   55.4000 C   0  0  0  0  0  0  0  0  0  0  0  0
   25.6000    1.8100   54.5800 O   0  0  0  0  0  0  0  0  0  0  0  0
   23.7700    3.3200   55.1700 C   0  0  0  0  0  0  0  0  0  0  0  0
   22.7800    3.0700   55.5100 H   0  0  0  0  0  0  0  0  0  0  0  0
   23.9300    4.1500   55.8700 H   0  0  0  0  0  0  0  0  0  0  0  0
   29.9600    3.2800   55.0500 C   0  0  0  0  0  0  0  0  0  0  0  0
   30.3700    2.2600   54.8100 H   0  0  0  0  0  0  0  0  0  0  0  0
   30.4400    3.6000   56.0100 H   0  0  0  0  0  0  0  0  0  0  0  0
   30.3800    4.2100   53.9600 C   0  0  0  0  0  0  0  0  0  0  0  0
   30.7200    3.5200   53.1800 H   0  0  0  0  0  0  0  0  0  0  0  0
   31.1900    4.6900   54.5000 H   0  0  0  0  0  0  0  0  0  0  0  0
   29.4200    5.3100   53.5000 C   0  0  0  0  0  0  0  0  0  0  0  0
   29.2700    6.0700   54.3000 H   0  0  0  0  0  0  0  0  0  0  0  0
   28.4700    4.8700   53.1300 H   0  0  0  0  0  0  0  0  0  0  0  0
   29.8700    6.0700   52.3200 C   0  0  0  0  0  0  0  0  0  0  0  0
   30.8400    6.6300   52.4800 H   0  0  0  0  0  0  0  0  0  0  0  0
   29.1300    6.8600   52.0400 H   0  0  0  0  0  0  0  0  0  0  0  0
   29.9900    5.1700   51.1100 C   0  0  0  0  0  0  0  0  0  0  0  0
   31.0300    5.0800   50.9500 H   0  0  0  0  0  0  0  0  0  0  0  0
   29.9100    6.0500   50.4500 H   0  0  0  0  0  0  0  0  0  0  0  0
   29.0800    3.8000   50.6300 C   0  0  0  0  0  0  0  0  0  0  0  0
   28.1200    4.3500   50.4000 H   0  0  0  0  0  0  0  0  0  0  0  0
   29.0600    3.2500   51.5300 H   0  0  0  0  0  0  0  0  0  0  0  0
   29.3700    2.7700   49.4300 C   0  0  0  0  0  0  0  0  0  0  0  0
   30.1300    1.9300   49.6300 H   0  0  0  0  0  0  0  0  0  0  0  0
   28.8300    2.5500   48.2800 C   0  0  0  0  0  0  0  0  0  0  0  0
   29.4800    2.0000   47.4500 H   0  0  0  0  0  0  0  0  0  0  0  0
   27.9200    3.5000   47.5500 C   0  0  0  0  0  0  0  0  0  0  0  0
   28.2400    3.8300   46.5900 H   0  0  0  0  0  0  0  0  0  0  0  0
   27.6100    4.3800   48.2100 H   0  0  0  0  0  0  0  0  0  0  0  0
   26.7800    2.4400   47.4900 C   0  0  0  0  0  0  0  0  0  0  0  0
   26.4300    2.1700   48.5100 H   0  0  0  0  0  0  0  0  0  0  0  0
   27.0900    1.4700   46.9900 H   0  0  0  0  0  0  0  0  0  0  0  0
   25.6100    2.9500   46.6800 C   0  0  0  0  0  0  0  0  0  0  0  0
   25.2600    3.8900   47.1600 H   0  0  0  0  0  0  0  0  0  0  0  0
   24.8000    2.1900   46.7400 H   0  0  0  0  0  0  0  0  0  0  0  0
   25.9900    3.2000   45.2200 C   0  0  0  0  0  0  0  0  0  0  0  0
   26.4800    2.2900   44.8100 H   0  0  0  0  0  0  0  0  0  0  0  0
   26.7300    4.0300   45.1600 H   0  0  0  0  0  0  0  0  0  0  0  0
   24.7600    3.5300   44.3700 C   0  0  0  0  0  0  0  0  0  0  0  0
   24.1500    4.2800   44.9100 H   0  0  0  0  0  0  0  0  0  0  0  0
   24.1700    2.5900   44.2700 H   0  0  0  0  0  0  0  0  0  0  0  0
   25.0500    4.0700   42.9600 C   0  0  0  0  0  0  0  0  0  0  0  0
   24.0900    4.1200   42.4200 H   0  0  0  0  0  0  0  0  0  0  0  0
   25.7300    3.3800   42.4100 H   0  0  0  0  0  0  0  0  0  0  0  0
   25.6600    5.4800   42.9700 C   0  0  0  0  0  0  0  0  0  0  0  0
   26.7300    5.3300   43.2100 H   0  0  0  0  0  0  0  0  0  0  0  0
   25.2000    6.0800   43.7900 H   0  0  0  0  0  0  0  0  0  0  0  0
   25.5400    6.2400   41.6500 C   0  0  0  0  0  0  0  0  0  0  0  0
   26.1500    7.1700   41.7000 H   0  0  0  0  0  0  0  0  0  0  0  0
   24.4800    6.5100   41.4500 H   0  0  0  0  0  0  0  0  0  0  0  0
   25.9300    5.6500   40.8000 H   0  0  0  0  0  0  0  0  0  0  0  0
   23.7300    3.6700   53.6900 C   0  0  0  0  0  0  0  0  0  0  0  0
   22.7100    3.7800   53.2700 H   0  0  0  0  0  0  0  0  0  0  0  0
   24.1900    2.9100   53.0200 H   0  0  0  0  0  0  0  0  0  0  0  0
   24.4100    4.9900   53.7400 C   0  0  0  0  0  0  0  0  0  0  0  0
   23.7100    5.6200   54.3600 H   0  0  0  0  0  0  0  0  0  0  0  0
   25.3700    4.8800   54.2800 H   0  0  0  0  0  0  0  0  0  0  0  0
   24.5500    5.6200   52.3900 C   0  0  0  0  0  0  0  0  0  0  0  0
   24.8900    6.6600   52.5300 H   0  0  0  0  0  0  0  0  0  0  0  0
   23.5100    5.5400   52.0100 H   0  0  0  0  0  0  0  0  0  0  0  0
   25.2700    4.9100   51.2700 C   0  0  0  0  0  0  0  0  0  0  0  0
   26.3600    4.9900   51.4300 H   0  0  0  0  0  0  0  0  0  0  0  0
   24.9500    3.8500   51.2500 H   0  0  0  0  0  0  0  0  0  0  0  0
   24.9100    5.5000   49.8900 C   0  0  0  0  0  0  0  0  0  0  0  0
   25.3400    4.8000   49.1500 H   0  0  0  0  0  0  0  0  0  0  0  0
   23.8400    5.4700   49.6600 H   0  0  0  0  0  0  0  0  0  0  0  0
   25.4400    6.9300   49.6900 C   0  0  0  0  0  0  0  0  0  0  0  0
   24.8500    7.7000   50.2200 H   0  0  0  0  0  0  0  0  0  0  0  0
   26.4800    6.9800   50.0900 H   0  0  0  0  0  0  0  0  0  0  0  0
   25.3900    7.1800   48.2100 C   0  0  0  0  0  0  0  0  0  0  0  0
   24.4700    6.8300   47.7200 H   0  0  0  0  0  0  0  0  0  0  0  0
   26.3200    7.8200   47.5000 C   0  0  0  0  0  0  0  0  0  0  0  0
   26.2200    7.9200   46.4200 H   0  0  0  0  0  0  0  0  0  0  0  0
   27.5700    8.4000   48.0500 C   0  0  0  0  0  0  0  0  0  0  0  0
   27.4600    8.7700   49.1000 H   0  0  0  0  0  0  0  0  0  0  0  0
   27.8700    9.2600   47.4300 H   0  0  0  0  0  0  0  0  0  0  0  0
   28.6300    7.3300   48.0400 C   0  0  0  0  0  0  0  0  0  0  0  0
   28.3600    6.5100   48.7400 H   0  0  0  0  0  0  0  0  0  0  0  0
   29.5200    7.8400   48.4600 H   0  0  0  0  0  0  0  0  0  0  0  0
   28.9000    6.7400   46.6500 C   0  0  0  0  0  0  0  0  0  0  0  0
   28.0400    6.2500   46.1800 H   0  0  0  0  0  0  0  0  0  0  0  0
   29.5700    5.8900   46.8000 H   0  0  0  0  0  0  0  0  0  0  0  0
   29.5900    7.6800   45.6800 C   0  0  0  0  0  0  0  0  0  0  0  0
   30.4600    8.1400   46.2000 H   0  0  0  0  0  0  0  0  0  0  0  0
   28.9200    8.5100   45.3700 H   0  0  0  0  0  0  0  0  0  0  0  0
   30.1300    6.9000   44.4900 C   0  0  0  0  0  0  0  0  0  0  0  0
   30.5700    5.9200   44.7800 H   0  0  0  0  0  0  0  0  0  0  0  0
   31.0000    7.4400   44.0900 H   0  0  0  0  0  0  0  0  0  0  0  0
   29.0500    6.6300   43.4700 C   0  0  0  0  0  0  0  0  0  0  0  0
   28.4900    7.5200   43.1200 H   0  0  0  0  0  0  0  0  0  0  0  0
   28.2600    6.1000   44.0000 H   0  0  0  0  0  0  0  0  0  0  0  0
   29.6000    5.8900   42.2700 C   0  0  0  0  0  0  0  0  0  0  0  0
   30.6000    6.2400   41.9500 H   0  0  0  0  0  0  0  0  0  0  0  0
   28.8900    6.0300   41.4400 H   0  0  0  0  0  0  0  0  0  0  0  0
   29.7300    4.4200   42.5500 C   0  0  0  0  0  0  0  0  0  0  0  0
   28.7300    4.0500   42.8800 H   0  0  0  0  0  0  0  0  0  0  0  0
   30.0600    3.8800   41.6400 H   0  0  0  0  0  0  0  0  0  0  0  0
   30.4700    4.2900   43.3700 H   0  0  0  0  0  0  0  0  0  0  0  0
  1  2  1  0  0  0  0
  1  4  1  0  0  0  0
  1  5  1  0  0  0  0
  3  1  1  0  0  0  0
  5  6  1  6  0  0  0
  5 10  1  0  0  0  0
  7  5  1  0  0  0  0
  7  9  1  0  0  0  0
  8  7  2  0  0  0  0
 10 16  1  0  0  0  0
 10 12  1  0  0  0  0
 10 11  1  0  0  0  0
 13 17  1  6  0  0  0
 13 15  1  0  0  0  0
 14 13  2  0  0  0  0
 16 13  1  0  0  0  0
 17 18  1  0  0  0  0
 18 19  1  0  0  0  0
 18 20  1  0  0  0  0
 21 22  1  1  0  0  0
 21 18  1  0  0  0  0
 23 21  1  0  0  0  0
 24 25  2  0  0  0  0
 24 23  1  0  0  0  0
 26 27  1  0  0  0  0
 26 24  1  0  0  0  0
 28 26  1  0  0  0  0
 29 30  1  0  0  0  0
 29 21  1  0  0  0  0
 31 29  1  0  0  0  0
 32 29  1  0  0  0  0
 33 32  1  0  0  0  0
 34 33  2  0  0  0  0
 35 33  1  0  0  0  0
 35 36  1  0  0  0  0
 35 37  1  0  0  0  0
 38 26  1  0  0  0  0
 38 40  1  0  0  0  0
 39 38  1  0  0  0  0
 41 43  1  0  0  0  0
 41 38  1  0  0  0  0
 42 41  1  0  0  0  0
 44 41  1  0  0  0  0
 44 45  1  0  0  0  0
 46 44  1  0  0  0  0
 47 48  1  0  0  0  0
 47 44  1  0  0  0  0
 49 47  1  0  0  0  0
 50 47  1  0  0  0  0
 51 50  1  0  0  0  0
 52 50  1  0  0  0  0
 53 50  1  0  0  0  0
 53 55  1  0  0  0  0
 54 53  1  0  0  0  0
 56 57  1  0  0  0  0
 56 53  1  0  0  0  0
 58 56  1  0  0  0  0
 59 58  1  0  0  0  0
 60 62  1  0  0  0  0
 60 58  1  0  0  0  0
 61 60  1  0  0  0  0
 63 60  1  0  0  0  0
 63 64  1  0  0  0  0
 65 63  1  0  0  0  0
 66 68  1  0  0  0  0
 66 67  1  0  0  0  0
 66 63  1  0  0  0  0
 69 66  1  0  0  0  0
 70 69  1  0  0  0  0
 71 69  1  0  0  0  0
 72 73  1  0  0  0  0
 72 69  1  0  0  0  0
 74 72  1  0  0  0  0
 75 78  1  0  0  0  0
 75 72  1  0  0  0  0
 76 75  1  0  0  0  0
 77 75  1  0  0  0  0
 78 79  1  0  0  0  0
 78 80  1  0  0  0  0
 81 82  1  0  0  0  0
 81 78  1  0  0  0  0
 83 81  1  0  0  0  0
 84 81  1  0  0  0  0
 85 88  1  0  0  0  0
 85 35  1  0  0  0  0
 86 85  1  0  0  0  0
 87 85  1  0  0  0  0
 88 90  1  0  0  0  0
 88 89  1  0  0  0  0
 91 92  1  0  0  0  0
 91 88  1  0  0  0  0
 93 91  1  0  0  0  0
 94 95  1  0  0  0  0
 94 91  1  0  0  0  0
 96 94  1  0  0  0  0
 97 94  1  0  0  0  0
 98 97  1  0  0  0  0
 99 97  1  0  0  0  0
100 97  1  0  0  0  0
100102  1  0  0  0  0
100101  1  0  0  0  0
103100  1  0  0  0  0
104103  1  0  0  0  0
105107  1  0  0  0  0
105103  2  0  0  0  0
106105  1  0  0  0  0
107108  1  0  0  0  0
109107  1  0  0  0  0
110107  1  0  0  0  0
110112  1  0  0  0  0
110111  1  0  0  0  0
113115  1  0  0  0  0
113110  1  0  0  0  0
114113  1  0  0  0  0
116117  1  0  0  0  0
116113  1  0  0  0  0
118116  1  0  0  0  0
119120  1  0  0  0  0
119116  1  0  0  0  0
121119  1  0  0  0  0
122124  1  0  0  0  0
122119  1  0  0  0  0
123122  1  0  0  0  0
125128  1  0  0  0  0
125122  1  0  0  0  0
126125  1  0  0  0  0
127125  1  0  0  0  0
128129  1  0  0  0  0
128131  1  0  0  0  0
130128  1  0  0  0  0
M  END
