YOPS
 OpenBabel02161614153D

125123  0  0  1  0  0  0  0  0999 V2000
    4.0300   43.2100   56.7600 N   0  0  0  0  0  0  0  0  0  0  0  0
    3.5600   43.7700   56.0300 H   0  0  0  0  0  0  0  0  0  0  0  0
    5.0000   43.0500   56.3700 H   0  0  0  0  0  0  0  0  0  0  0  0
    3.6800   42.2300   56.8900 H   0  0  0  0  0  0  0  0  0  0  0  0
    4.4200   43.9200   58.0200 C   0  0  2  0  0  0  0  0  0  0  0  0
    3.6500   43.7300   58.7300 H   0  0  0  0  0  0  0  0  0  0  0  0
    4.5000   45.4100   57.7300 C   0  0  0  0  0  0  0  0  0  0  0  0
    4.5700   46.1500   58.7400 O   0  0  0  0  0  0  0  0  0  0  0  0
    4.5400   45.8100   56.5400 O   0  0  0  0  0  0  0  0  0  0  0  0
    5.8300   43.6400   58.7200 C   0  0  0  0  0  0  0  0  0  0  0  0
    5.9300   44.3500   59.5600 H   0  0  0  0  0  0  0  0  0  0  0  0
    6.6500   43.8800   58.0000 H   0  0  0  0  0  0  0  0  0  0  0  0
    7.4200   41.7900   59.6900 P   0  0  2  0  0  0  0  0  0  0  0  0
    7.0700   40.5400   60.4100 O   0  0  0  0  0  0  0  0  0  0  0  0
    8.1100   42.8600   60.4400 O   0  0  0  0  0  0  0  0  0  0  0  0
    6.0000   42.3400   59.2700 O   0  0  0  0  0  0  0  0  0  0  0  0
    8.0600   41.3800   58.2500 O   0  0  0  0  0  0  0  0  0  0  0  0
    8.0400   40.1100   57.5300 C   0  0  0  0  0  0  0  0  0  0  0  0
    7.2400   39.4700   57.9100 H   0  0  0  0  0  0  0  0  0  0  0  0
    8.9600   39.5200   57.7200 H   0  0  0  0  0  0  0  0  0  0  0  0
    8.0500   40.0300   55.9300 C   0  0  2  0  0  0  0  0  0  0  0  0
    8.9500   39.4500   55.6100 H   0  0  0  0  0  0  0  0  0  0  0  0
    8.0200   41.2700   55.2200 O   0  0  0  0  0  0  0  0  0  0  0  0
    8.9900   42.0500   55.5400 C   0  0  0  0  0  0  0  0  0  0  0  0
   10.0400   41.5800   55.9100 O   0  0  0  0  0  0  0  0  0  0  0  0
    8.5600   43.4800   55.1900 C   0  0  0  0  0  0  0  0  0  0  0  0
    9.4100   44.1700   55.0900 H   0  0  0  0  0  0  0  0  0  0  0  0
    7.9900   43.9200   56.0200 H   0  0  0  0  0  0  0  0  0  0  0  0
    6.7900   39.3200   55.4100 C   0  0  0  0  0  0  0  0  0  0  0  0
    5.9200   39.7000   55.9600 H   0  0  0  0  0  0  0  0  0  0  0  0
    6.8300   38.2300   55.6000 H   0  0  0  0  0  0  0  0  0  0  0  0
    6.5400   39.6700   54.0400 O   0  0  0  0  0  0  0  0  0  0  0  0
    6.8400   38.7400   53.1900 C   0  0  0  0  0  0  0  0  0  0  0  0
    7.4200   37.7000   53.4300 O   0  0  0  0  0  0  0  0  0  0  0  0
    6.2600   39.1800   51.8500 C   0  0  0  0  0  0  0  0  0  0  0  0
    6.9100   39.9800   51.4400 H   0  0  0  0  0  0  0  0  0  0  0  0
    5.2800   39.6700   52.0200 H   0  0  0  0  0  0  0  0  0  0  0  0
    7.7000   43.4100   53.8900 C   0  0  0  0  0  0  0  0  0  0  0  0
    6.9000   42.6600   53.9100 H   0  0  0  0  0  0  0  0  0  0  0  0
    8.2800   43.0600   53.0200 H   0  0  0  0  0  0  0  0  0  0  0  0
    7.1800   44.7600   53.4700 C   0  0  0  0  0  0  0  0  0  0  0  0
    8.0800   45.4000   53.5900 H   0  0  0  0  0  0  0  0  0  0  0  0
    6.3900   45.0900   54.1800 H   0  0  0  0  0  0  0  0  0  0  0  0
    6.6600   44.7500   52.0200 C   0  0  0  0  0  0  0  0  0  0  0  0
    7.4200   44.4400   51.3000 H   0  0  0  0  0  0  0  0  0  0  0  0
    6.3300   45.7600   51.6900 H   0  0  0  0  0  0  0  0  0  0  0  0
    5.5500   43.7500   51.8400 C   0  0  0  0  0  0  0  0  0  0  0  0
    4.7200   44.0600   52.5300 H   0  0  0  0  0  0  0  0  0  0  0  0
    5.8600   42.7200   52.1400 H   0  0  0  0  0  0  0  0  0  0  0  0
    5.0400   43.6800   50.4100 C   0  0  0  0  0  0  0  0  0  0  0  0
    4.5600   44.6600   50.1800 H   0  0  0  0  0  0  0  0  0  0  0  0
    4.3000   42.8400   50.4400 H   0  0  0  0  0  0  0  0  0  0  0  0
    5.9600   43.2700   49.2700 C   0  0  0  0  0  0  0  0  0  0  0  0
    6.3300   42.2500   49.5200 H   0  0  0  0  0  0  0  0  0  0  0  0
    6.8400   43.9500   49.2400 H   0  0  0  0  0  0  0  0  0  0  0  0
    5.2400   43.2900   47.9300 C   0  0  0  0  0  0  0  0  0  0  0  0
    4.9500   44.3000   47.6000 H   0  0  0  0  0  0  0  0  0  0  0  0
    4.8400   42.2400   47.1800 C   0  0  0  0  0  0  0  0  0  0  0  0
    4.4200   42.4600   46.1800 H   0  0  0  0  0  0  0  0  0  0  0  0
    5.0000   40.7500   47.4500 C   0  0  0  0  0  0  0  0  0  0  0  0
    4.2600   40.1300   46.9100 H   0  0  0  0  0  0  0  0  0  0  0  0
    4.9700   40.5400   48.5500 H   0  0  0  0  0  0  0  0  0  0  0  0
    6.3100   40.1300   46.9700 C   0  0  0  0  0  0  0  0  0  0  0  0
    6.6500   39.2000   47.4000 H   0  0  0  0  0  0  0  0  0  0  0  0
    6.9000   40.7100   47.6800 H   0  0  0  0  0  0  0  0  0  0  0  0
    6.3900   40.0000   45.4100 C   0  0  0  0  0  0  0  0  0  0  0  0
    6.0500   40.9800   44.9700 H   0  0  0  0  0  0  0  0  0  0  0  0
    5.7100   39.2100   45.1000 H   0  0  0  0  0  0  0  0  0  0  0  0
    7.7600   39.5100   44.8100 C   0  0  0  0  0  0  0  0  0  0  0  0
    8.5500   39.1200   45.4500 H   0  0  0  0  0  0  0  0  0  0  0  0
    7.8300   40.6100   44.6200 H   0  0  0  0  0  0  0  0  0  0  0  0
    8.4200   39.2500   43.4700 C   0  0  0  0  0  0  0  0  0  0  0  0
    7.6500   39.7600   42.8300 H   0  0  0  0  0  0  0  0  0  0  0  0
    7.9700   38.2800   43.1600 H   0  0  0  0  0  0  0  0  0  0  0  0
   10.2700   39.5700   43.3700 C   0  0  0  0  0  0  0  0  0  0  0  0
    9.6400   38.9900   42.8600 H   0  0  0  0  0  0  0  0  0  0  0  0
   10.9000   38.8400   43.7500 H   0  0  0  0  0  0  0  0  0  0  0  0
   11.3700   40.9500   42.5700 C   0  0  0  0  0  0  0  0  0  0  0  0
   11.0800   42.0100   42.8600 H   0  0  0  0  0  0  0  0  0  0  0  0
   10.9700   41.6300   41.8100 H   0  0  0  0  0  0  0  0  0  0  0  0
   12.6400   41.8600   42.7500 C   0  0  0  0  0  0  0  0  0  0  0  0
   12.6200   42.9900   42.6300 H   0  0  0  0  0  0  0  0  0  0  0  0
   12.8000   41.9300   41.6700 H   0  0  0  0  0  0  0  0  0  0  0  0
   13.5100   41.4000   43.1700 H   0  0  0  0  0  0  0  0  0  0  0  0
    6.0500   37.9600   50.9300 C   0  0  0  0  0  0  0  0  0  0  0  0
    5.2600   38.1900   50.1900 H   0  0  0  0  0  0  0  0  0  0  0  0
    5.8500   37.0200   51.4800 H   0  0  0  0  0  0  0  0  0  0  0  0
    7.3100   37.7500   50.1500 C   0  0  0  0  0  0  0  0  0  0  0  0
    7.2500   38.6300   49.4700 H   0  0  0  0  0  0  0  0  0  0  0  0
    8.1100   37.8000   50.8900 H   0  0  0  0  0  0  0  0  0  0  0  0
    7.6600   36.5000   49.3500 C   0  0  0  0  0  0  0  0  0  0  0  0
    7.7200   35.6200   50.0100 H   0  0  0  0  0  0  0  0  0  0  0  0
    8.6700   36.5200   48.8700 H   0  0  0  0  0  0  0  0  0  0  0  0
    6.7400   36.5000   48.1700 C   0  0  0  0  0  0  0  0  0  0  0  0
    5.7100   36.6100   48.5600 H   0  0  0  0  0  0  0  0  0  0  0  0
    6.9700   37.3800   47.5400 H   0  0  0  0  0  0  0  0  0  0  0  0
    6.9500   35.2900   47.3000 C   0  0  0  0  0  0  0  0  0  0  0  0
    7.2600   34.4400   47.9500 H   0  0  0  0  0  0  0  0  0  0  0  0
    5.9400   35.1300   46.9100 H   0  0  0  0  0  0  0  0  0  0  0  0
    7.9200   35.5700   46.1400 C   0  0  0  0  0  0  0  0  0  0  0  0
    7.4500   36.3800   45.5400 H   0  0  0  0  0  0  0  0  0  0  0  0
    8.8600   36.0100   46.5600 H   0  0  0  0  0  0  0  0  0  0  0  0
    8.3300   34.4200   45.2600 C   0  0  0  0  0  0  0  0  0  0  0  0
    8.7300   33.5400   45.7800 H   0  0  0  0  0  0  0  0  0  0  0  0
    8.1100   34.3400   43.9300 C   0  0  0  0  0  0  0  0  0  0  0  0
    8.3000   33.3800   43.4200 H   0  0  0  0  0  0  0  0  0  0  0  0
    7.4100   35.3700   43.0900 C   0  0  0  0  0  0  0  0  0  0  0  0
    8.0600   36.2300   42.8500 H   0  0  0  0  0  0  0  0  0  0  0  0
    6.5200   35.7900   43.6300 H   0  0  0  0  0  0  0  0  0  0  0  0
    6.8600   34.8500   41.7500 C   0  0  0  0  0  0  0  0  0  0  0  0
    7.5200   34.1200   41.2400 H   0  0  0  0  0  0  0  0  0  0  0  0
    5.9000   34.2900   41.7500 H   0  0  0  0  0  0  0  0  0  0  0  0
    6.4500   36.0800   41.0100 C   0  0  0  0  0  0  0  0  0  0  0  0
    7.3100   36.4400   40.4000 H   0  0  0  0  0  0  0  0  0  0  0  0
    6.0300   36.8500   41.7000 H   0  0  0  0  0  0  0  0  0  0  0  0
    5.3100   35.7400   40.1400 C   0  0  0  0  0  0  0  0  0  0  0  0
    5.7900   35.0400   39.4600 H   0  0  0  0  0  0  0  0  0  0  0  0
    4.5500   35.2300   40.7500 H   0  0  0  0  0  0  0  0  0  0  0  0
    4.7400   36.9200   39.4200 C   0  0  0  0  0  0  0  0  0  0  0  0
    4.4900   37.7700   40.0700 H   0  0  0  0  0  0  0  0  0  0  0  0
    3.7500   36.6300   39.1800 H   0  0  0  0  0  0  0  0  0  0  0  0
    5.5700   37.2600   38.1900 C   0  0  0  0  0  0  0  0  0  0  0  0
    6.4800   37.7800   38.5600 H   0  0  0  0  0  0  0  0  0  0  0  0
    5.0000   37.9100   37.4900 H   0  0  0  0  0  0  0  0  0  0  0  0
    5.8900   36.3500   37.6300 H   0  0  0  0  0  0  0  0  0  0  0  0
  1  4  1  0  0  0  0
  1  5  1  0  0  0  0
  2  1  1  0  0  0  0
  3  1  1  0  0  0  0
  5 10  1  0  0  0  0
  5  6  1  1  0  0  0
  7  5  1  0  0  0  0
  7  8  1  0  0  0  0
  9  7  2  0  0  0  0
 10 16  1  0  0  0  0
 10 11  1  0  0  0  0
 12 10  1  0  0  0  0
 13 17  1  6  0  0  0
 13 14  2  0  0  0  0
 13 15  1  0  0  0  0
 16 13  1  0  0  0  0
 18 20  1  0  0  0  0
 18 19  1  0  0  0  0
 18 17  1  0  0  0  0
 21 22  1  6  0  0  0
 21 18  1  0  0  0  0
 23 24  1  0  0  0  0
 23 21  1  0  0  0  0
 24 25  2  0  0  0  0
 26 24  1  0  0  0  0
 26 28  1  0  0  0  0
 27 26  1  0  0  0  0
 29 31  1  0  0  0  0
 29 21  1  0  0  0  0
 29 30  1  0  0  0  0
 32 29  1  0  0  0  0
 33 34  2  0  0  0  0
 33 32  1  0  0  0  0
 35 37  1  0  0  0  0
 35 33  1  0  0  0  0
 36 35  1  0  0  0  0
 38 39  1  0  0  0  0
 38 26  1  0  0  0  0
 40 38  1  0  0  0  0
 41 42  1  0  0  0  0
 41 38  1  0  0  0  0
 41 43  1  0  0  0  0
 44 41  1  0  0  0  0
 45 44  1  0  0  0  0
 46 44  1  0  0  0  0
 47 44  1  0  0  0  0
 47 49  1  0  0  0  0
 47 48  1  0  0  0  0
 50 52  1  0  0  0  0
 50 47  1  0  0  0  0
 51 50  1  0  0  0  0
 53 54  1  0  0  0  0
 53 50  1  0  0  0  0
 55 53  1  0  0  0  0
 56 53  1  0  0  0  0
 57 56  1  0  0  0  0
 58 60  1  0  0  0  0
 58 56  2  0  0  0  0
 59 58  1  0  0  0  0
 60 62  1  0  0  0  0
 61 60  1  0  0  0  0
 63 64  1  0  0  0  0
 63 60  1  0  0  0  0
 63 65  1  0  0  0  0
 66 63  1  0  0  0  0
 67 66  1  0  0  0  0
 68 66  1  0  0  0  0
 69 66  1  0  0  0  0
 69 70  1  0  0  0  0
 71 69  1  0  0  0  0
 72 69  1  0  0  0  0
 73 72  1  0  0  0  0
 74 72  1  0  0  0  0
 75 77  1  0  0  0  0
 76 75  1  0  0  0  0
 78 81  1  0  0  0  0
 78 79  1  0  0  0  0
 78 75  1  0  0  0  0
 80 78  1  0  0  0  0
 81 84  1  0  0  0  0
 82 81  1  0  0  0  0
 83 81  1  0  0  0  0
 85 87  1  0  0  0  0
 85 35  1  0  0  0  0
 86 85  1  0  0  0  0
 88 90  1  0  0  0  0
 88 85  1  0  0  0  0
 89 88  1  0  0  0  0
 91 92  1  0  0  0  0
 91 88  1  0  0  0  0
 93 91  1  0  0  0  0
 94 95  1  0  0  0  0
 94 91  1  0  0  0  0
 96 94  1  0  0  0  0
 97 98  1  0  0  0  0
 97 94  1  0  0  0  0
 99 97  1  0  0  0  0
100102  1  0  0  0  0
100 97  1  0  0  0  0
101100  1  0  0  0  0
103104  1  0  0  0  0
103100  1  0  0  0  0
105103  2  0  0  0  0
106105  1  0  0  0  0
107109  1  0  0  0  0
107105  1  0  0  0  0
108107  1  0  0  0  0
110107  1  0  0  0  0
111110  1  0  0  0  0
112110  1  0  0  0  0
113115  1  0  0  0  0
113110  1  0  0  0  0
114113  1  0  0  0  0
116118  1  0  0  0  0
116113  1  0  0  0  0
117116  1  0  0  0  0
119120  1  0  0  0  0
119116  1  0  0  0  0
121119  1  0  0  0  0
122123  1  0  0  0  0
122119  1  0  0  0  0
124122  1  0  0  0  0
125122  1  0  0  0  0
M  END
