LOCCL2
 OpenBabel02161614153D

242242  0  0  1  0  0  0  0  0999 V2000
   13.7300   59.6000   59.5000 C   0  0  0  0  0  0  0  0  0  0  0  0
   13.4600   59.5800   58.4100 H   0  0  0  0  0  0  0  0  0  0  0  0
   12.9100   59.1700   60.1100 H   0  0  0  0  0  0  0  0  0  0  0  0
   13.2400   62.1500   59.4300 P   0  0  2  0  0  0  0  0  0  0  0  0
   12.8900   63.0300   60.5700 O   0  0  0  0  0  0  0  0  0  0  0  0
   12.1600   61.6800   58.5400 O   0  0  0  0  0  0  0  0  0  0  0  0
   14.0100   60.9200   59.9700 O   0  0  0  0  0  0  0  0  0  0  0  0
   14.3300   62.8900   58.5800 O   0  0  0  0  0  0  0  0  0  0  0  0
   15.4600   62.3600   57.9400 C   0  0  0  0  0  0  0  0  0  0  0  0
   16.2600   63.0500   58.2300 H   0  0  0  0  0  0  0  0  0  0  0  0
   15.7400   61.3400   58.2900 H   0  0  0  0  0  0  0  0  0  0  0  0
   15.0200   58.7800   59.6600 C   0  0  1  0  0  0  0  0  0  0  0  0
   15.8000   59.3100   59.0800 H   0  0  0  0  0  0  0  0  0  0  0  0
   15.4400   58.8000   61.0200 O   0  0  0  0  0  0  0  0  0  0  0  0
   15.7100   57.9100   61.1800 H   0  0  0  0  0  0  0  0  0  0  0  0
   14.9100   57.2900   59.2100 C   0  0  0  0  0  0  0  0  0  0  0  0
   15.9100   56.8200   59.3800 H   0  0  0  0  0  0  0  0  0  0  0  0
   14.7500   57.2600   58.1100 H   0  0  0  0  0  0  0  0  0  0  0  0
   13.4400   55.1400   59.3000 P   0  0  1  0  0  0  0  0  0  0  0  0
   14.6600   54.4500   58.8400 O   0  0  0  0  0  0  0  0  0  0  0  0
   12.5200   54.4300   60.2100 O   0  0  0  0  0  0  0  0  0  0  0  0
   13.8700   56.5700   59.8900 O   0  0  0  0  0  0  0  0  0  0  0  0
   12.6100   55.6100   57.9900 O   0  0  0  0  0  0  0  0  0  0  0  0
   11.3400   56.2400   58.2300 C   0  0  0  0  0  0  0  0  0  0  0  0
   11.4600   57.0600   58.9800 H   0  0  0  0  0  0  0  0  0  0  0  0
   10.6400   55.4800   58.6300 H   0  0  0  0  0  0  0  0  0  0  0  0
   10.5900   56.8700   56.9900 C   0  0  2  0  0  0  0  0  0  0  0  0
    9.6500   57.3200   57.3900 H   0  0  0  0  0  0  0  0  0  0  0  0
   10.2300   55.8500   56.0500 O   0  0  0  0  0  0  0  0  0  0  0  0
    9.4100   56.2000   55.0800 C   0  0  0  0  0  0  0  0  0  0  0  0
    8.8800   57.2800   54.9300 O   0  0  0  0  0  0  0  0  0  0  0  0
    9.1500   54.9800   54.2200 C   0  0  0  0  0  0  0  0  0  0  0  0
    8.3200   54.3900   54.6600 H   0  0  0  0  0  0  0  0  0  0  0  0
   10.0600   54.3400   54.1800 H   0  0  0  0  0  0  0  0  0  0  0  0
   11.4100   58.0700   56.4300 C   0  0  0  0  0  0  0  0  0  0  0  0
   11.5200   58.7200   57.3300 H   0  0  0  0  0  0  0  0  0  0  0  0
   10.8500   58.6900   55.6900 H   0  0  0  0  0  0  0  0  0  0  0  0
   12.7300   57.7200   56.0200 O   0  0  0  0  0  0  0  0  0  0  0  0
   12.9700   57.7300   54.7400 C   0  0  0  0  0  0  0  0  0  0  0  0
   12.1900   58.0300   53.8500 O   0  0  0  0  0  0  0  0  0  0  0  0
   14.4000   57.2300   54.5200 C   0  0  0  0  0  0  0  0  0  0  0  0
   14.6000   56.4700   55.3100 H   0  0  0  0  0  0  0  0  0  0  0  0
   15.1100   58.0700   54.6600 H   0  0  0  0  0  0  0  0  0  0  0  0
   15.3300   62.4100   56.4000 C   0  0  2  0  0  0  0  0  0  0  0  0
   15.3400   63.4800   56.0800 H   0  0  0  0  0  0  0  0  0  0  0  0
   14.2100   61.6700   55.8800 O   0  0  0  0  0  0  0  0  0  0  0  0
   13.1000   62.3900   55.7800 C   0  0  0  0  0  0  0  0  0  0  0  0
   12.9400   63.4600   56.3000 O   0  0  0  0  0  0  0  0  0  0  0  0
   12.0300   61.5800   55.0800 C   0  0  0  0  0  0  0  0  0  0  0  0
   11.3300   61.2700   55.8800 H   0  0  0  0  0  0  0  0  0  0  0  0
   12.5300   60.6700   54.7300 H   0  0  0  0  0  0  0  0  0  0  0  0
   16.5800   61.7800   55.7400 C   0  0  0  0  0  0  0  0  0  0  0  0
   17.4800   62.3200   56.1100 H   0  0  0  0  0  0  0  0  0  0  0  0
   16.6100   60.7300   56.1300 H   0  0  0  0  0  0  0  0  0  0  0  0
   16.4600   61.9300   54.3100 O   0  0  0  0  0  0  0  0  0  0  0  0
   17.1800   61.1000   53.5600 C   0  0  0  0  0  0  0  0  0  0  0  0
   17.9000   60.2300   53.9900 O   0  0  0  0  0  0  0  0  0  0  0  0
   16.9300   61.4100   52.0700 C   0  0  0  0  0  0  0  0  0  0  0  0
   17.8500   61.7300   51.5600 H   0  0  0  0  0  0  0  0  0  0  0  0
   16.2800   62.2900   52.0000 H   0  0  0  0  0  0  0  0  0  0  0  0
    8.7000   55.4800   52.8500 C   0  0  0  0  0  0  0  0  0  0  0  0
    9.1600   56.4300   52.5100 H   0  0  0  0  0  0  0  0  0  0  0  0
    7.5900   55.6200   52.9100 H   0  0  0  0  0  0  0  0  0  0  0  0
    9.0200   54.5000   51.7500 C   0  0  0  0  0  0  0  0  0  0  0  0
    8.1100   53.8700   51.8600 H   0  0  0  0  0  0  0  0  0  0  0  0
    9.8700   53.8500   52.0500 H   0  0  0  0  0  0  0  0  0  0  0  0
    9.2600   55.2600   50.4100 C   0  0  0  0  0  0  0  0  0  0  0  0
   10.2000   55.8300   50.3900 H   0  0  0  0  0  0  0  0  0  0  0  0
    8.3400   55.7900   50.1000 H   0  0  0  0  0  0  0  0  0  0  0  0
    9.5900   54.5500   49.1600 C   0  0  0  0  0  0  0  0  0  0  0  0
    8.6700   53.9400   49.3100 H   0  0  0  0  0  0  0  0  0  0  0  0
   10.6500   54.1900   49.2000 H   0  0  0  0  0  0  0  0  0  0  0  0
    9.3000   55.0300   47.7700 C   0  0  0  0  0  0  0  0  0  0  0  0
    9.6400   56.0100   48.0300 H   0  0  0  0  0  0  0  0  0  0  0  0
    8.2000   54.9200   47.5900 H   0  0  0  0  0  0  0  0  0  0  0  0
   10.3300   54.7500   46.6600 C   0  0  0  0  0  0  0  0  0  0  0  0
   11.2100   54.3900   47.1200 H   0  0  0  0  0  0  0  0  0  0  0  0
   10.3100   55.1300   45.6700 H   0  0  0  0  0  0  0  0  0  0  0  0
   10.1100   53.6500   45.9000 C   0  0  0  0  0  0  0  0  0  0  0  0
    8.9700   53.6100   46.2400 H   0  0  0  0  0  0  0  0  0  0  0  0
   10.8600   52.4500   45.3500 C   0  0  2  0  0  0  0  0  0  0  0  0
   10.4800   51.3000   45.2300 H   0  0  0  0  0  0  0  0  0  0  0  0
   11.9800   51.7600   45.2000 C   0  0  0  0  0  0  0  0  0  0  0  0
   12.2300   50.8500   44.9400 H   0  0  0  0  0  0  0  0  0  0  0  0
   12.2600   51.2400   45.9900 H   0  0  0  0  0  0  0  0  0  0  0  0
   12.3500   52.8700   44.4900 C   0  0  1  0  0  0  0  0  0  0  0  0
   12.9200   53.4500   45.2000 H   0  0  0  0  0  0  0  0  0  0  0  0
   12.0900   53.4900   43.3700 C   0  0  0  0  0  0  0  0  0  0  0  0
   13.0100   53.9600   43.0500 H   0  0  0  0  0  0  0  0  0  0  0  0
   11.0200   52.8300   42.5300 C   0  0  0  0  0  0  0  0  0  0  0  0
   10.4600   52.0100   42.9900 H   0  0  0  0  0  0  0  0  0  0  0  0
   11.2800   51.8800   42.2000 H   0  0  0  0  0  0  0  0  0  0  0  0
   10.6100   53.4100   41.2000 C   0  0  0  0  0  0  0  0  0  0  0  0
   11.3400   53.9100   40.4800 H   0  0  0  0  0  0  0  0  0  0  0  0
   10.6600   54.4400   41.5500 H   0  0  0  0  0  0  0  0  0  0  0  0
    9.7500   52.3400   40.3400 C   0  0  0  0  0  0  0  0  0  0  0  0
    9.6700   53.0200   39.4500 H   0  0  0  0  0  0  0  0  0  0  0  0
    8.8600   52.2400   40.9800 H   0  0  0  0  0  0  0  0  0  0  0  0
    9.9900   50.6600   39.8900 C   0  0  0  0  0  0  0  0  0  0  0  0
    9.0600   50.4700   39.3700 H   0  0  0  0  0  0  0  0  0  0  0  0
    9.9700   50.0900   40.8100 H   0  0  0  0  0  0  0  0  0  0  0  0
   11.2900   49.7200   39.2700 C   0  0  0  0  0  0  0  0  0  0  0  0
   12.0500   49.6200   40.0900 H   0  0  0  0  0  0  0  0  0  0  0  0
   11.8000   50.3300   38.4000 H   0  0  0  0  0  0  0  0  0  0  0  0
   11.4700   48.9900   38.5300 H   0  0  0  0  0  0  0  0  0  0  0  0
   14.5300   56.6400   53.1000 C   0  0  0  0  0  0  0  0  0  0  0  0
   14.3400   57.4600   52.3800 H   0  0  0  0  0  0  0  0  0  0  0  0
   13.7400   55.8700   52.9600 H   0  0  0  0  0  0  0  0  0  0  0  0
   15.9000   56.0400   52.7200 C   0  0  0  0  0  0  0  0  0  0  0  0
   16.0700   55.0900   53.2500 H   0  0  0  0  0  0  0  0  0  0  0  0
   16.7000   56.7400   52.9900 H   0  0  0  0  0  0  0  0  0  0  0  0
   16.1100   55.7700   51.2400 C   0  0  0  0  0  0  0  0  0  0  0  0
   16.3300   54.6900   51.1400 H   0  0  0  0  0  0  0  0  0  0  0  0
   16.9400   56.3900   50.8100 H   0  0  0  0  0  0  0  0  0  0  0  0
   14.9000   55.9000   50.3900 C   0  0  0  0  0  0  0  0  0  0  0  0
   14.6200   56.9400   50.1700 H   0  0  0  0  0  0  0  0  0  0  0  0
   14.0100   55.3900   50.8400 H   0  0  0  0  0  0  0  0  0  0  0  0
   15.1600   55.2000   49.1400 C   0  0  0  0  0  0  0  0  0  0  0  0
   15.5100   54.1700   49.4100 H   0  0  0  0  0  0  0  0  0  0  0  0
   15.9600   55.5600   48.4800 H   0  0  0  0  0  0  0  0  0  0  0  0
   13.8200   55.4300   48.4600 C   0  0  0  0  0  0  0  0  0  0  0  0
   12.9800   54.8100   48.9100 H   0  0  0  0  0  0  0  0  0  0  0  0
   14.2100   54.8900   47.6600 H   0  0  0  0  0  0  0  0  0  0  0  0
   13.5000   56.2800   47.2800 C   0  0  0  0  0  0  0  0  0  0  0  0
   12.4300   56.5400   47.2900 H   0  0  0  0  0  0  0  0  0  0  0  0
   14.2700   56.6300   46.1900 C   0  0  0  0  0  0  0  0  0  0  0  0
   13.7500   57.3300   45.5600 H   0  0  0  0  0  0  0  0  0  0  0  0
   15.7100   56.3800   45.6500 C   0  0  0  0  0  0  0  0  0  0  0  0
   16.4300   56.9100   46.2600 H   0  0  0  0  0  0  0  0  0  0  0  0
   15.7200   56.5700   44.5700 H   0  0  0  0  0  0  0  0  0  0  0  0
   16.6500   55.2900   45.8000 C   0  0  0  0  0  0  0  0  0  0  0  0
   16.4200   54.8900   46.7700 H   0  0  0  0  0  0  0  0  0  0  0  0
   17.4400   54.6300   44.9700 C   0  0  0  0  0  0  0  0  0  0  0  0
   17.5100   53.5700   45.1600 H   0  0  0  0  0  0  0  0  0  0  0  0
   17.6300   54.8700   43.5200 C   0  0  0  0  0  0  0  0  0  0  0  0
   18.7100   54.6400   43.6600 H   0  0  0  0  0  0  0  0  0  0  0  0
   17.1700   55.8200   43.4500 H   0  0  0  0  0  0  0  0  0  0  0  0
   17.2600   54.7800   41.9000 C   0  0  0  0  0  0  0  0  0  0  0  0
   17.7200   53.9700   41.2900 H   0  0  0  0  0  0  0  0  0  0  0  0
   18.0400   55.0400   41.1800 H   0  0  0  0  0  0  0  0  0  0  0  0
   15.8100   54.4100   41.6800 C   0  0  0  0  0  0  0  0  0  0  0  0
   15.2100   55.1300   42.2100 H   0  0  0  0  0  0  0  0  0  0  0  0
   15.2600   53.7100   42.2800 H   0  0  0  0  0  0  0  0  0  0  0  0
   15.6400   53.8300   40.3300 C   0  0  0  0  0  0  0  0  0  0  0  0
   14.6000   53.8500   40.3500 H   0  0  0  0  0  0  0  0  0  0  0  0
   15.9600   52.8000   39.9800 H   0  0  0  0  0  0  0  0  0  0  0  0
   16.1200   54.9300   39.5000 C   0  0  0  0  0  0  0  0  0  0  0  0
   15.9000   55.9300   39.8100 H   0  0  0  0  0  0  0  0  0  0  0  0
   15.3800   54.9700   38.7200 H   0  0  0  0  0  0  0  0  0  0  0  0
   17.1800   54.7800   39.2000 H   0  0  0  0  0  0  0  0  0  0  0  0
   11.2900   62.1200   53.8300 C   0  0  0  0  0  0  0  0  0  0  0  0
   11.9600   62.5900   53.0800 H   0  0  0  0  0  0  0  0  0  0  0  0
   10.4900   62.8600   54.0400 H   0  0  0  0  0  0  0  0  0  0  0  0
   10.6400   60.8600   53.2500 C   0  0  0  0  0  0  0  0  0  0  0  0
   10.1100   60.3100   54.0700 H   0  0  0  0  0  0  0  0  0  0  0  0
   11.4000   60.2200   52.7600 H   0  0  0  0  0  0  0  0  0  0  0  0
    9.6100   61.2100   52.2500 C   0  0  0  0  0  0  0  0  0  0  0  0
   10.1400   61.7500   51.4300 H   0  0  0  0  0  0  0  0  0  0  0  0
    9.0600   61.9700   52.8100 H   0  0  0  0  0  0  0  0  0  0  0  0
    8.8100   60.0400   51.6800 C   0  0  0  0  0  0  0  0  0  0  0  0
    8.0000   60.1100   50.9600 H   0  0  0  0  0  0  0  0  0  0  0  0
    8.1800   59.5500   52.4400 H   0  0  0  0  0  0  0  0  0  0  0  0
    9.7100   59.3300   50.7100 C   0  0  0  0  0  0  0  0  0  0  0  0
   10.3700   58.7700   51.3700 H   0  0  0  0  0  0  0  0  0  0  0  0
   10.2500   60.1000   50.1000 H   0  0  0  0  0  0  0  0  0  0  0  0
    9.0100   58.3800   49.7500 C   0  0  0  0  0  0  0  0  0  0  0  0
    8.1500   57.9400   50.2800 H   0  0  0  0  0  0  0  0  0  0  0  0
    9.7300   57.5900   49.5000 H   0  0  0  0  0  0  0  0  0  0  0  0
    8.5400   58.9200   48.4600 C   0  0  0  0  0  0  0  0  0  0  0  0
    7.4400   58.8400   48.3100 H   0  0  0  0  0  0  0  0  0  0  0  0
    9.2400   59.5600   47.5200 C   0  0  0  0  0  0  0  0  0  0  0  0
    8.7300   59.6700   46.6100 H   0  0  0  0  0  0  0  0  0  0  0  0
   10.6700   59.9700   47.3600 C   0  0  0  0  0  0  0  0  0  0  0  0
   11.2300   59.5300   48.2100 H   0  0  0  0  0  0  0  0  0  0  0  0
   10.8300   61.0700   47.3800 H   0  0  0  0  0  0  0  0  0  0  0  0
   11.2600   59.3900   46.0500 C   0  0  0  0  0  0  0  0  0  0  0  0
   11.2900   58.2900   46.1700 H   0  0  0  0  0  0  0  0  0  0  0  0
   12.3000   59.7700   45.9600 H   0  0  0  0  0  0  0  0  0  0  0  0
   10.5000   59.7800   44.7600 C   0  0  0  0  0  0  0  0  0  0  0  0
    9.5600   59.2000   44.7200 H   0  0  0  0  0  0  0  0  0  0  0  0
   10.2400   60.8600   44.8800 H   0  0  0  0  0  0  0  0  0  0  0  0
   11.2200   59.5900   43.4000 C   0  0  0  0  0  0  0  0  0  0  0  0
   12.0500   60.3100   43.2400 H   0  0  0  0  0  0  0  0  0  0  0  0
   10.5000   59.8500   42.5900 H   0  0  0  0  0  0  0  0  0  0  0  0
   11.7100   58.1600   43.1200 C   0  0  0  0  0  0  0  0  0  0  0  0
   12.5700   57.9200   43.7700 H   0  0  0  0  0  0  0  0  0  0  0  0
   12.0600   58.1400   42.0500 H   0  0  0  0  0  0  0  0  0  0  0  0
   10.6300   57.0800   43.3100 C   0  0  0  0  0  0  0  0  0  0  0  0
   11.0800   56.1200   42.9700 H   0  0  0  0  0  0  0  0  0  0  0  0
   10.4000   56.9600   44.3900 H   0  0  0  0  0  0  0  0  0  0  0  0
    9.3300   57.3700   42.5300 C   0  0  0  0  0  0  0  0  0  0  0  0
    9.5900   57.5800   41.4700 H   0  0  0  0  0  0  0  0  0  0  0  0
    8.9200   58.3100   42.9500 H   0  0  0  0  0  0  0  0  0  0  0  0
    8.2600   56.2700   42.6000 C   0  0  0  0  0  0  0  0  0  0  0  0
    7.6700   56.3200   43.5400 H   0  0  0  0  0  0  0  0  0  0  0  0
    7.5000   56.3700   41.7900 H   0  0  0  0  0  0  0  0  0  0  0  0
    8.6900   55.2600   42.5200 H   0  0  0  0  0  0  0  0  0  0  0  0
   16.4800   60.1500   51.2800 C   0  0  0  0  0  0  0  0  0  0  0  0
   15.5800   59.7100   51.7500 H   0  0  0  0  0  0  0  0  0  0  0  0
   17.2800   59.3800   51.3500 H   0  0  0  0  0  0  0  0  0  0  0  0
   16.1700   60.4600   49.8000 C   0  0  0  0  0  0  0  0  0  0  0  0
   17.0800   60.8400   49.2900 H   0  0  0  0  0  0  0  0  0  0  0  0
   15.3900   61.2600   49.7800 H   0  0  0  0  0  0  0  0  0  0  0  0
   15.6100   59.2900   48.9900 C   0  0  0  0  0  0  0  0  0  0  0  0
   14.7600   58.8900   49.5800 H   0  0  0  0  0  0  0  0  0  0  0  0
   16.3600   58.4700   48.8800 H   0  0  0  0  0  0  0  0  0  0  0  0
   15.1500   59.7200   47.5900 C   0  0  0  0  0  0  0  0  0  0  0  0
   14.4300   60.5600   47.5900 H   0  0  0  0  0  0  0  0  0  0  0  0
   14.6000   58.8800   47.1200 H   0  0  0  0  0  0  0  0  0  0  0  0
   16.3200   60.2000   46.7500 C   0  0  0  0  0  0  0  0  0  0  0  0
   17.2500   59.7400   47.1800 H   0  0  0  0  0  0  0  0  0  0  0  0
   16.4400   61.2800   46.8300 H   0  0  0  0  0  0  0  0  0  0  0  0
   16.2000   59.8100   45.3000 C   0  0  0  0  0  0  0  0  0  0  0  0
   15.8700   58.7600   45.3000 H   0  0  0  0  0  0  0  0  0  0  0  0
   17.2300   59.8200   44.8700 H   0  0  0  0  0  0  0  0  0  0  0  0
   15.2700   60.5800   44.4100 C   0  0  0  0  0  0  0  0  0  0  0  0
   14.7400   61.4700   44.7700 H   0  0  0  0  0  0  0  0  0  0  0  0
   15.0900   60.1500   43.1700 C   0  0  0  0  0  0  0  0  0  0  0  0
   14.5000   60.7700   42.4700 H   0  0  0  0  0  0  0  0  0  0  0  0
   15.8000   58.9100   42.6500 C   0  0  0  0  0  0  0  0  0  0  0  0
   15.1900   57.9800   42.7100 H   0  0  0  0  0  0  0  0  0  0  0  0
   16.7300   58.6800   43.2000 H   0  0  0  0  0  0  0  0  0  0  0  0
   16.2600   59.2400   41.2800 C   0  0  0  0  0  0  0  0  0  0  0  0
   17.1200   59.9200   41.3000 H   0  0  0  0  0  0  0  0  0  0  0  0
   15.7400   58.8700   40.1000 C   0  0  0  0  0  0  0  0  0  0  0  0
   16.2400   59.2900   39.2200 H   0  0  0  0  0  0  0  0  0  0  0  0
   14.5200   58.0200   39.8100 C   0  0  0  0  0  0  0  0  0  0  0  0
   14.2500   57.3300   40.6400 H   0  0  0  0  0  0  0  0  0  0  0  0
   14.7500   57.4100   38.9100 H   0  0  0  0  0  0  0  0  0  0  0  0
   13.3200   58.9000   39.4000 C   0  0  0  0  0  0  0  0  0  0  0  0
   13.6800   59.5000   38.5300 H   0  0  0  0  0  0  0  0  0  0  0  0
   13.0400   59.5300   40.2600 H   0  0  0  0  0  0  0  0  0  0  0  0
   12.0300   58.2600   38.8700 C   0  0  0  0  0  0  0  0  0  0  0  0
   11.9300   57.2200   39.2600 H   0  0  0  0  0  0  0  0  0  0  0  0
   12.1100   58.2000   37.7700 H   0  0  0  0  0  0  0  0  0  0  0  0
   10.7700   59.1100   39.2300 C   0  0  0  0  0  0  0  0  0  0  0  0
   10.7500   59.2400   40.3400 H   0  0  0  0  0  0  0  0  0  0  0  0
    9.8700   58.5100   38.9600 H   0  0  0  0  0  0  0  0  0  0  0  0
   10.5200   60.4800   38.5500 C   0  0  0  0  0  0  0  0  0  0  0  0
   11.3700   61.1900   38.5500 H   0  0  0  0  0  0  0  0  0  0  0  0
    9.6500   60.9600   39.0500 H   0  0  0  0  0  0  0  0  0  0  0  0
   10.2400   60.3400   37.4900 H   0  0  0  0  0  0  0  0  0  0  0  0
  1 12  1  0  0  0  0
  1  7  1  0  0  0  0
  1  3  1  0  0  0  0
  2  1  1  0  0  0  0
  4  6  2  6  0  0  0
  4  7  1  0  0  0  0
  4  5  1  0  0  0  0
  8  4  1  0  0  0  0
  9 10  1  0  0  0  0
  9 11  1  0  0  0  0
  9  8  1  0  0  0  0
 12 13  1  6  0  0  0
 12 14  1  0  0  0  0
 14 15  1  0  0  0  0
 16 17  1  0  0  0  0
 16 12  1  0  0  0  0
 16 22  1  0  0  0  0
 18 16  1  0  0  0  0
 19 23  1  6  0  0  0
 19 22  1  0  0  0  0
 19 21  1  0  0  0  0
 20 19  2  0  0  0  0
 23 24  1  0  0  0  0
 24 26  1  0  0  0  0
 24 25  1  0  0  0  0
 27 28  1  1  0  0  0
 27 24  1  0  0  0  0
 29 27  1  0  0  0  0
 30 29  1  0  0  0  0
 31 30  2  0  0  0  0
 32 33  1  0  0  0  0
 32 30  1  0  0  0  0
 34 32  1  0  0  0  0
 35 27  1  0  0  0  0
 35 36  1  0  0  0  0
 37 35  1  0  0  0  0
 38 35  1  0  0  0  0
 39 38  1  0  0  0  0
 40 39  2  0  0  0  0
 41 43  1  0  0  0  0
 41 39  1  0  0  0  0
 41 42  1  0  0  0  0
 44 45  1  6  0  0  0
 44  9  1  0  0  0  0
 46 44  1  0  0  0  0
 47 46  1  0  0  0  0
 47 48  2  0  0  0  0
 49 47  1  0  0  0  0
 49 50  1  0  0  0  0
 51 49  1  0  0  0  0
 52 53  1  0  0  0  0
 52 54  1  0  0  0  0
 52 44  1  0  0  0  0
 55 52  1  0  0  0  0
 56 57  2  0  0  0  0
 56 55  1  0  0  0  0
 58 56  1  0  0  0  0
 59 58  1  0  0  0  0
 60 58  1  0  0  0  0
 61 63  1  0  0  0  0
 61 32  1  0  0  0  0
 62 61  1  0  0  0  0
 64 65  1  0  0  0  0
 64 66  1  0  0  0  0
 64 61  1  0  0  0  0
 67 64  1  0  0  0  0
 68 67  1  0  0  0  0
 69 67  1  0  0  0  0
 70 72  1  0  0  0  0
 70 71  1  0  0  0  0
 70 67  1  0  0  0  0
 73 74  1  0  0  0  0
 73 70  1  0  0  0  0
 75 73  1  0  0  0  0
 76 77  1  0  0  0  0
 76 73  1  0  0  0  0
 78 76  1  0  0  0  0
 79 80  1  0  0  0  0
 79 76  1  0  0  0  0
 81 82  1  6  0  0  0
 81 79  1  0  0  0  0
 83 81  1  0  0  0  0
 83 85  1  0  0  0  0
 84 83  1  0  0  0  0
 86 83  1  0  0  0  0
 86 87  1  1  0  0  0
 86 81  1  0  0  0  0
 88 86  1  0  0  0  0
 89 88  1  0  0  0  0
 90 91  1  0  0  0  0
 90 88  1  0  0  0  0
 92 90  1  0  0  0  0
 93 95  1  0  0  0  0
 93 90  1  0  0  0  0
 94 93  1  0  0  0  0
 96 98  1  0  0  0  0
 96 93  1  0  0  0  0
 97 96  1  0  0  0  0
 99 96  1  0  0  0  0
 99101  1  0  0  0  0
100 99  1  0  0  0  0
102 99  1  0  0  0  0
102103  1  0  0  0  0
104102  1  0  0  0  0
105102  1  0  0  0  0
106 41  1  0  0  0  0
107106  1  0  0  0  0
108106  1  0  0  0  0
109111  1  0  0  0  0
109106  1  0  0  0  0
109110  1  0  0  0  0
112109  1  0  0  0  0
113112  1  0  0  0  0
114112  1  0  0  0  0
115117  1  0  0  0  0
115112  1  0  0  0  0
116115  1  0  0  0  0
118119  1  0  0  0  0
118115  1  0  0  0  0
120118  1  0  0  0  0
121122  1  0  0  0  0
121118  1  0  0  0  0
123121  1  0  0  0  0
124125  1  0  0  0  0
124121  1  0  0  0  0
126124  2  0  0  0  0
127126  1  0  0  0  0
128131  1  0  0  0  0
128126  1  0  0  0  0
128129  1  0  0  0  0
130128  1  0  0  0  0
131132  1  0  0  0  0
133134  1  0  0  0  0
133131  1  0  0  0  0
135136  1  0  0  0  0
135133  1  0  0  0  0
137135  1  0  0  0  0
138135  1  0  0  0  0
139138  1  0  0  0  0
140138  1  0  0  0  0
141138  1  0  0  0  0
141142  1  0  0  0  0
141143  1  0  0  0  0
144145  1  0  0  0  0
144141  1  0  0  0  0
146144  1  0  0  0  0
147148  1  0  0  0  0
147144  1  0  0  0  0
149147  1  0  0  0  0
150147  1  0  0  0  0
151153  1  0  0  0  0
151 49  1  0  0  0  0
152151  1  0  0  0  0
154151  1  0  0  0  0
154155  1  0  0  0  0
156154  1  0  0  0  0
157159  1  0  0  0  0
157154  1  0  0  0  0
158157  1  0  0  0  0
160157  1  0  0  0  0
160162  1  0  0  0  0
161160  1  0  0  0  0
163164  1  0  0  0  0
163160  1  0  0  0  0
165163  1  0  0  0  0
166167  1  0  0  0  0
166163  1  0  0  0  0
168166  1  0  0  0  0
169166  1  0  0  0  0
170169  1  0  0  0  0
171169  1  0  0  0  0
172171  1  0  0  0  0
173175  1  0  0  0  0
173171  1  0  0  0  0
173174  1  0  0  0  0
176177  1  0  0  0  0
176173  1  0  0  0  0
178176  1  0  0  0  0
179181  1  0  0  0  0
179176  1  0  0  0  0
180179  1  0  0  0  0
182179  1  0  0  0  0
183182  1  0  0  0  0
184182  1  0  0  0  0
185188  1  0  0  0  0
185182  1  0  0  0  0
185186  1  0  0  0  0
187185  1  0  0  0  0
188190  1  0  0  0  0
189188  1  0  0  0  0
191194  1  0  0  0  0
191193  1  0  0  0  0
191188  1  0  0  0  0
192191  1  0  0  0  0
194195  1  0  0  0  0
196194  1  0  0  0  0
197194  1  0  0  0  0
198200  1  0  0  0  0
198199  1  0  0  0  0
198 58  1  0  0  0  0
201198  1  0  0  0  0
202201  1  0  0  0  0
203201  1  0  0  0  0
204205  1  0  0  0  0
204201  1  0  0  0  0
206204  1  0  0  0  0
207204  1  0  0  0  0
208207  1  0  0  0  0
209207  1  0  0  0  0
210212  1  0  0  0  0
210211  1  0  0  0  0
210207  1  0  0  0  0
213210  1  0  0  0  0
214213  1  0  0  0  0
215213  1  0  0  0  0
216217  1  0  0  0  0
216213  1  0  0  0  0
218216  2  0  0  0  0
219218  1  0  0  0  0
220221  1  0  0  0  0
220218  1  0  0  0  0
220222  1  0  0  0  0
223224  1  0  0  0  0
223220  1  0  0  0  0
225223  2  0  0  0  0
226225  1  0  0  0  0
227225  1  0  0  0  0
227228  1  0  0  0  0
229227  1  0  0  0  0
230227  1  0  0  0  0
230232  1  0  0  0  0
231230  1  0  0  0  0
233236  1  0  0  0  0
233234  1  0  0  0  0
233230  1  0  0  0  0
235233  1  0  0  0  0
236237  1  0  0  0  0
238236  1  0  0  0  0
239240  1  0  0  0  0
239241  1  0  0  0  0
239236  1  0  0  0  0
242239  1  0  0  0  0
M  END
