PMPE
 OpenBabel02161614153D

122122  0  0  1  0  0  0  0  0999 V2000
    8.9500   13.3700   58.2200 N   0  0  0  0  0  0  0  0  0  0  0  0
    9.1900   12.6100   57.5400 H   0  0  0  0  0  0  0  0  0  0  0  0
    9.7000   13.4700   58.9400 H   0  0  0  0  0  0  0  0  0  0  0  0
    8.0600   13.0900   58.7300 H   0  0  0  0  0  0  0  0  0  0  0  0
    8.7100   14.7400   57.6100 C   0  0  0  0  0  0  0  0  0  0  0  0
    9.2500   14.8100   56.6500 H   0  0  0  0  0  0  0  0  0  0  0  0
    9.1300   15.4800   58.3100 H   0  0  0  0  0  0  0  0  0  0  0  0
    7.2100   15.0500   57.4200 C   0  0  0  0  0  0  0  0  0  0  0  0
    6.7400   14.3400   56.7000 H   0  0  0  0  0  0  0  0  0  0  0  0
    7.1300   16.0600   56.9600 H   0  0  0  0  0  0  0  0  0  0  0  0
    5.5400   14.0400   59.2200 P   0  0  1  0  0  0  0  0  0  0  0  0
    4.8600   14.5200   60.4400 O   0  0  0  0  0  0  0  0  0  0  0  0
    6.3400   12.8100   59.2900 O   0  0  0  0  0  0  0  0  0  0  0  0
    4.5300   13.9800   58.0300 O   0  0  0  0  0  0  0  0  0  0  0  0
    6.5500   15.1300   58.6800 O   0  0  0  0  0  0  0  0  0  0  0  0
    3.9800   15.2200   57.5800 C   0  0  0  0  0  0  0  0  0  0  0  0
    4.7400   15.8800   57.1000 H   0  0  0  0  0  0  0  0  0  0  0  0
    3.4600   15.7900   58.3900 H   0  0  0  0  0  0  0  0  0  0  0  0
    2.9700   14.9000   56.5100 C   0  0  2  0  0  0  0  0  0  0  0  0
    2.0700   14.4200   56.9300 H   0  0  0  0  0  0  0  0  0  0  0  0
    3.6700   14.0000   55.5700 O   0  0  0  0  0  0  0  0  0  0  0  0
    3.2300   12.7200   55.3900 C   0  0  0  0  0  0  0  0  0  0  0  0
    2.2700   12.2600   55.9800 O   0  0  0  0  0  0  0  0  0  0  0  0
    3.8500   11.9600   54.1600 C   0  0  0  0  0  0  0  0  0  0  0  0
    4.7800   11.4700   54.4300 H   0  0  0  0  0  0  0  0  0  0  0  0
    4.1700   12.5700   53.3100 H   0  0  0  0  0  0  0  0  0  0  0  0
    2.5000   16.3600   55.9600 C   0  0  0  0  0  0  0  0  0  0  0  0
    2.0100   16.8600   56.8100 H   0  0  0  0  0  0  0  0  0  0  0  0
    1.6400   16.3100   55.2700 H   0  0  0  0  0  0  0  0  0  0  0  0
    3.4700   17.3400   55.4800 O   0  0  0  0  0  0  0  0  0  0  0  0
    4.4400   17.0000   54.6500 C   0  0  0  0  0  0  0  0  0  0  0  0
    4.7500   15.8900   54.3000 O   0  0  0  0  0  0  0  0  0  0  0  0
    5.2800   18.2200   54.2700 C   0  0  0  0  0  0  0  0  0  0  0  0
    6.1300   18.1700   54.9700 H   0  0  0  0  0  0  0  0  0  0  0  0
    4.7200   19.1600   54.4500 H   0  0  0  0  0  0  0  0  0  0  0  0
    2.8400   10.9300   53.5700 C   0  0  0  0  0  0  0  0  0  0  0  0
    1.8500   11.3300   53.3400 H   0  0  0  0  0  0  0  0  0  0  0  0
    2.6600   10.1600   54.3600 H   0  0  0  0  0  0  0  0  0  0  0  0
    3.3500   10.2300   52.3100 C   0  0  0  0  0  0  0  0  0  0  0  0
    2.7400    9.3100   52.2000 H   0  0  0  0  0  0  0  0  0  0  0  0
    4.4000    9.9900   52.5600 H   0  0  0  0  0  0  0  0  0  0  0  0
    3.3800   10.9400   50.9400 C   0  0  0  0  0  0  0  0  0  0  0  0
    4.1200   10.4400   50.2800 H   0  0  0  0  0  0  0  0  0  0  0  0
    3.7000   11.9800   51.1000 H   0  0  0  0  0  0  0  0  0  0  0  0
    2.0600   10.8400   50.1800 C   0  0  0  0  0  0  0  0  0  0  0  0
    1.3200   11.2500   50.9100 H   0  0  0  0  0  0  0  0  0  0  0  0
    1.8200    9.7600   50.0400 H   0  0  0  0  0  0  0  0  0  0  0  0
    1.8500   11.5500   48.8100 C   0  0  0  0  0  0  0  0  0  0  0  0
    1.3400   12.5200   48.7400 H   0  0  0  0  0  0  0  0  0  0  0  0
    0.8500   11.2200   48.7700 H   0  0  0  0  0  0  0  0  0  0  0  0
    2.7400   11.4200   47.5100 C   0  0  0  0  0  0  0  0  0  0  0  0
    2.1500   11.8400   46.6800 H   0  0  0  0  0  0  0  0  0  0  0  0
    2.7200   10.3200   47.3700 H   0  0  0  0  0  0  0  0  0  0  0  0
    4.3000   11.8600   47.4900 C   0  0  2  0  0  0  0  0  0  0  0  0
    4.7900   11.5100   48.4100 H   0  0  0  0  0  0  0  0  0  0  0  0
    5.2200   13.1400   47.2800 C   0  0  0  0  0  0  0  0  0  0  0  0
    6.1300   13.0700   47.8400 H   0  0  0  0  0  0  0  0  0  0  0  0
    4.9700   14.1300   47.0400 H   0  0  0  0  0  0  0  0  0  0  0  0
    4.9800   12.1800   46.1700 C   0  0  2  0  0  0  0  0  0  0  0  0
    6.0000   11.9600   45.8800 H   0  0  0  0  0  0  0  0  0  0  0  0
    4.1700   12.5400   44.9400 C   0  0  0  0  0  0  0  0  0  0  0  0
    4.7700   13.2000   44.2800 H   0  0  0  0  0  0  0  0  0  0  0  0
    3.1400   12.9400   45.0300 H   0  0  0  0  0  0  0  0  0  0  0  0
    3.8900   11.2300   44.2900 C   0  0  0  0  0  0  0  0  0  0  0  0
    3.2700   10.5500   44.9200 H   0  0  0  0  0  0  0  0  0  0  0  0
    4.8700   10.7600   44.0900 H   0  0  0  0  0  0  0  0  0  0  0  0
    3.2200   11.5200   42.9800 C   0  0  0  0  0  0  0  0  0  0  0  0
    3.6000   12.4900   42.6000 H   0  0  0  0  0  0  0  0  0  0  0  0
    2.1300   11.6000   43.1500 H   0  0  0  0  0  0  0  0  0  0  0  0
    3.6700   10.4000   42.0800 C   0  0  0  0  0  0  0  0  0  0  0  0
    3.7000    9.4800   42.7000 H   0  0  0  0  0  0  0  0  0  0  0  0
    4.6800   10.6800   41.7100 H   0  0  0  0  0  0  0  0  0  0  0  0
    2.7800   10.1200   40.9200 C   0  0  0  0  0  0  0  0  0  0  0  0
    2.9200   10.9700   40.2300 H   0  0  0  0  0  0  0  0  0  0  0  0
    1.7500    9.9700   41.2800 H   0  0  0  0  0  0  0  0  0  0  0  0
    3.0800    8.9900   40.0200 C   0  0  0  0  0  0  0  0  0  0  0  0
    3.1500    8.0600   40.6100 H   0  0  0  0  0  0  0  0  0  0  0  0
    2.2600    8.9000   39.3000 H   0  0  0  0  0  0  0  0  0  0  0  0
    4.0300    9.2500   39.5000 H   0  0  0  0  0  0  0  0  0  0  0  0
    5.8400   18.1700   52.8200 C   0  0  0  0  0  0  0  0  0  0  0  0
    6.4500   19.0900   52.6700 H   0  0  0  0  0  0  0  0  0  0  0  0
    5.0400   18.1800   52.0500 H   0  0  0  0  0  0  0  0  0  0  0  0
    6.7600   16.9600   52.6000 C   0  0  0  0  0  0  0  0  0  0  0  0
    6.1600   16.0400   52.4400 H   0  0  0  0  0  0  0  0  0  0  0  0
    7.3700   16.8000   53.5100 H   0  0  0  0  0  0  0  0  0  0  0  0
    7.6900   17.0900   51.4000 C   0  0  0  0  0  0  0  0  0  0  0  0
    8.4700   16.3000   51.4900 H   0  0  0  0  0  0  0  0  0  0  0  0
    8.2200   18.0700   51.4000 H   0  0  0  0  0  0  0  0  0  0  0  0
    6.9500   16.8700   50.0700 C   0  0  0  0  0  0  0  0  0  0  0  0
    6.1800   17.6500   49.9000 H   0  0  0  0  0  0  0  0  0  0  0  0
    6.4500   15.8800   50.1000 H   0  0  0  0  0  0  0  0  0  0  0  0
    7.9600   16.8600   48.9400 C   0  0  0  0  0  0  0  0  0  0  0  0
    8.7900   16.2000   49.2900 H   0  0  0  0  0  0  0  0  0  0  0  0
    8.3700   17.8900   48.8000 H   0  0  0  0  0  0  0  0  0  0  0  0
    7.4200   16.3100   47.6200 C   0  0  0  0  0  0  0  0  0  0  0  0
    6.9400   17.1300   47.0500 H   0  0  0  0  0  0  0  0  0  0  0  0
    6.6600   15.5300   47.8400 H   0  0  0  0  0  0  0  0  0  0  0  0
    8.4900   15.6600   46.7300 C   0  0  0  0  0  0  0  0  0  0  0  0
    9.0800   14.9000   47.3000 H   0  0  0  0  0  0  0  0  0  0  0  0
    9.1600   16.4800   46.4700 H   0  0  0  0  0  0  0  0  0  0  0  0
    7.9300   15.0900   45.4200 C   0  0  0  0  0  0  0  0  0  0  0  0
    7.6100   15.9600   44.8000 H   0  0  0  0  0  0  0  0  0  0  0  0
    7.0400   14.4900   45.6700 H   0  0  0  0  0  0  0  0  0  0  0  0
    8.8900   14.2300   44.5800 C   0  0  0  0  0  0  0  0  0  0  0  0
    9.3500   13.4300   45.1900 H   0  0  0  0  0  0  0  0  0  0  0  0
    9.7100   14.8600   44.1800 H   0  0  0  0  0  0  0  0  0  0  0  0
    8.1800   13.6400   43.3600 C   0  0  0  0  0  0  0  0  0  0  0  0
    7.8900   14.5100   42.7400 H   0  0  0  0  0  0  0  0  0  0  0  0
    7.2300   13.1400   43.6700 H   0  0  0  0  0  0  0  0  0  0  0  0
    9.0300   12.6600   42.5300 C   0  0  0  0  0  0  0  0  0  0  0  0
    9.0200   11.6600   43.0200 H   0  0  0  0  0  0  0  0  0  0  0  0
   10.0800   13.0200   42.5100 H   0  0  0  0  0  0  0  0  0  0  0  0
    8.5900   12.5200   41.0700 C   0  0  0  0  0  0  0  0  0  0  0  0
    9.3600   11.9600   40.4900 H   0  0  0  0  0  0  0  0  0  0  0  0
    8.5800   13.5100   40.6000 H   0  0  0  0  0  0  0  0  0  0  0  0
    7.2600   11.8000   40.8800 C   0  0  0  0  0  0  0  0  0  0  0  0
    6.4600   12.1700   41.5500 H   0  0  0  0  0  0  0  0  0  0  0  0
    7.4700   10.7400   41.1200 H   0  0  0  0  0  0  0  0  0  0  0  0
    6.7700   11.8000   39.4400 C   0  0  0  0  0  0  0  0  0  0  0  0
    5.8300   11.2200   39.3300 H   0  0  0  0  0  0  0  0  0  0  0  0
    7.5800   11.3100   38.8700 H   0  0  0  0  0  0  0  0  0  0  0  0
    6.6200   12.8000   39.0000 H   0  0  0  0  0  0  0  0  0  0  0  0
  1  4  1  0  0  0  0
  1  3  1  0  0  0  0
  2  1  1  0  0  0  0
  5  1  1  0  0  0  0
  5  7  1  0  0  0  0
  6  5  1  0  0  0  0
  8  5  1  0  0  0  0
  8 15  1  0  0  0  0
  9  8  1  0  0  0  0
 10  8  1  0  0  0  0
 11 14  1  6  0  0  0
 11 13  2  0  0  0  0
 11 12  1  0  0  0  0
 15 11  1  0  0  0  0
 16 14  1  0  0  0  0
 16 18  1  0  0  0  0
 17 16  1  0  0  0  0
 19 20  1  1  0  0  0
 19 16  1  0  0  0  0
 21 19  1  0  0  0  0
 22 21  1  0  0  0  0
 22 23  2  0  0  0  0
 24 25  1  0  0  0  0
 24 22  1  0  0  0  0
 26 24  1  0  0  0  0
 27 19  1  0  0  0  0
 27 28  1  0  0  0  0
 29 27  1  0  0  0  0
 30 27  1  0  0  0  0
 31 30  1  0  0  0  0
 32 31  2  0  0  0  0
 33 35  1  0  0  0  0
 33 31  1  0  0  0  0
 33 34  1  0  0  0  0
 36 24  1  0  0  0  0
 36 38  1  0  0  0  0
 37 36  1  0  0  0  0
 39 41  1  0  0  0  0
 39 36  1  0  0  0  0
 40 39  1  0  0  0  0
 42 44  1  0  0  0  0
 42 39  1  0  0  0  0
 43 42  1  0  0  0  0
 45 46  1  0  0  0  0
 45 42  1  0  0  0  0
 47 45  1  0  0  0  0
 48 45  1  0  0  0  0
 49 48  1  0  0  0  0
 50 48  1  0  0  0  0
 51 48  1  0  0  0  0
 52 51  1  0  0  0  0
 53 51  1  0  0  0  0
 54 51  1  0  0  0  0
 54 55  1  1  0  0  0
 56 54  1  0  0  0  0
 56 57  1  0  0  0  0
 58 56  1  0  0  0  0
 59 60  1  6  0  0  0
 59 56  1  0  0  0  0
 59 54  1  0  0  0  0
 61 63  1  0  0  0  0
 61 59  1  0  0  0  0
 62 61  1  0  0  0  0
 64 65  1  0  0  0  0
 64 61  1  0  0  0  0
 66 64  1  0  0  0  0
 67 69  1  0  0  0  0
 67 64  1  0  0  0  0
 68 67  1  0  0  0  0
 70 71  1  0  0  0  0
 70 67  1  0  0  0  0
 72 70  1  0  0  0  0
 73 75  1  0  0  0  0
 73 70  1  0  0  0  0
 74 73  1  0  0  0  0
 76 77  1  0  0  0  0
 76 73  1  0  0  0  0
 78 76  1  0  0  0  0
 79 76  1  0  0  0  0
 80 33  1  0  0  0  0
 81 80  1  0  0  0  0
 82 80  1  0  0  0  0
 83 80  1  0  0  0  0
 83 85  1  0  0  0  0
 84 83  1  0  0  0  0
 86 87  1  0  0  0  0
 86 83  1  0  0  0  0
 88 86  1  0  0  0  0
 89 91  1  0  0  0  0
 89 86  1  0  0  0  0
 90 89  1  0  0  0  0
 92 93  1  0  0  0  0
 92 89  1  0  0  0  0
 94 92  1  0  0  0  0
 95 97  1  0  0  0  0
 95 92  1  0  0  0  0
 96 95  1  0  0  0  0
 98 99  1  0  0  0  0
 98 95  1  0  0  0  0
100 98  1  0  0  0  0
101103  1  0  0  0  0
101 98  1  0  0  0  0
102101  1  0  0  0  0
104105  1  0  0  0  0
104101  1  0  0  0  0
106104  1  0  0  0  0
107109  1  0  0  0  0
107104  1  0  0  0  0
108107  1  0  0  0  0
110111  1  0  0  0  0
110107  1  0  0  0  0
112110  1  0  0  0  0
113110  1  0  0  0  0
114113  1  0  0  0  0
115113  1  0  0  0  0
116113  1  0  0  0  0
116118  1  0  0  0  0
116117  1  0  0  0  0
119116  1  0  0  0  0
120119  1  0  0  0  0
121119  1  0  0  0  0
122119  1  0  0  0  0
M  END
