CHL1
 OpenBabel02161614153D

 74 77  0  0  1  0  0  0  0  0999 V2000
   32.0300   14.9200   56.9100 C   0  0  2  0  0  0  0  0  0  0  0  0
   32.5500   15.9000   56.9500 H   0  0  0  0  0  0  0  0  0  0  0  0
   31.8000   14.4200   58.2300 O   0  0  0  0  0  0  0  0  0  0  0  0
   31.0300   14.9200   58.5400 H   0  0  0  0  0  0  0  0  0  0  0  0
   30.6900   15.0800   56.1900 C   0  0  0  0  0  0  0  0  0  0  0  0
   30.2400   14.0700   56.2900 H   0  0  0  0  0  0  0  0  0  0  0  0
   30.0300   15.8000   56.7300 H   0  0  0  0  0  0  0  0  0  0  0  0
   30.8400   15.4300   54.7100 C   0  0  0  0  0  0  0  0  0  0  0  0
   30.2400   16.4800   54.1500 C   0  0  0  0  0  0  0  0  0  0  0  0
   29.5500   17.1200   54.7300 H   0  0  0  0  0  0  0  0  0  0  0  0
   30.3600   16.7300   52.6800 C   0  0  0  0  0  0  0  0  0  0  0  0
   29.3700   17.0200   52.3900 H   0  0  0  0  0  0  0  0  0  0  0  0
   31.0300   17.6000   52.5200 H   0  0  0  0  0  0  0  0  0  0  0  0
   30.8500   15.5100   51.8100 C   0  0  1  0  0  0  0  0  0  0  0  0
   30.0400   14.7700   51.7600 H   0  0  0  0  0  0  0  0  0  0  0  0
   31.1500   15.7800   50.3600 C   0  0  2  0  0  0  0  0  0  0  0  0
   31.7300   16.7400   50.3400 H   0  0  0  0  0  0  0  0  0  0  0  0
   29.9600   15.8900   49.5100 C   0  0  0  0  0  0  0  0  0  0  0  0
   29.1500   15.2200   49.2600 H   0  0  0  0  0  0  0  0  0  0  0  0
   29.2700   16.3600   50.2000 H   0  0  0  0  0  0  0  0  0  0  0  0
   30.5900   16.2800   48.1500 C   0  0  0  0  0  0  0  0  0  0  0  0
   29.9100   15.9300   47.3400 H   0  0  0  0  0  0  0  0  0  0  0  0
   30.7900   17.3500   47.9300 H   0  0  0  0  0  0  0  0  0  0  0  0
   31.9000   15.5500   48.1500 C   0  0  1  0  0  0  0  0  0  0  0  0
   32.7200   16.3100   48.1900 H   0  0  0  0  0  0  0  0  0  0  0  0
   31.8500   14.7800   49.4800 C   0  0  2  0  0  0  0  0  0  0  0  0
   30.9400   13.5200   49.3400 C   0  0  0  0  0  0  0  0  0  0  0  0
   30.7100   13.0400   50.3000 H   0  0  0  0  0  0  0  0  0  0  0  0
   29.9600   13.6300   48.8800 H   0  0  0  0  0  0  0  0  0  0  0  0
   31.3700   12.8300   48.6300 H   0  0  0  0  0  0  0  0  0  0  0  0
   33.1600   14.5200   50.1500 C   0  0  0  0  0  0  0  0  0  0  0  0
   33.7300   13.8100   49.5200 H   0  0  0  0  0  0  0  0  0  0  0  0
   33.7100   15.4900   50.2200 H   0  0  0  0  0  0  0  0  0  0  0  0
   32.8700   13.9900   51.5600 C   0  0  0  0  0  0  0  0  0  0  0  0
   32.3000   13.0400   51.4600 H   0  0  0  0  0  0  0  0  0  0  0  0
   33.8400   13.7400   52.0300 H   0  0  0  0  0  0  0  0  0  0  0  0
   32.0900   15.0000   52.4600 C   0  0  2  0  0  0  0  0  0  0  0  0
   32.7500   15.8900   52.5600 H   0  0  0  0  0  0  0  0  0  0  0  0
   31.7500   14.5200   53.8700 C   0  0  2  0  0  0  0  0  0  0  0  0
   31.0000   13.2000   53.6500 C   0  0  0  0  0  0  0  0  0  0  0  0
   30.2600   13.2000   52.8400 H   0  0  0  0  0  0  0  0  0  0  0  0
   31.7100   12.3900   53.4200 H   0  0  0  0  0  0  0  0  0  0  0  0
   30.4400   12.9500   54.5600 H   0  0  0  0  0  0  0  0  0  0  0  0
   33.0500   14.3100   54.6700 C   0  0  0  0  0  0  0  0  0  0  0  0
   33.6400   13.5200   54.1500 H   0  0  0  0  0  0  0  0  0  0  0  0
   33.6200   15.2600   54.6300 H   0  0  0  0  0  0  0  0  0  0  0  0
   32.8300   13.8800   56.1300 C   0  0  0  0  0  0  0  0  0  0  0  0
   33.8000   13.7000   56.6200 H   0  0  0  0  0  0  0  0  0  0  0  0
   32.2700   12.9200   56.1400 H   0  0  0  0  0  0  0  0  0  0  0  0
   31.9300   14.8400   46.8300 C   0  0  2  0  0  0  0  0  0  0  0  0
   30.9900   14.2500   46.7000 H   0  0  0  0  0  0  0  0  0  0  0  0
   33.0800   13.8400   46.7600 C   0  0  0  0  0  0  0  0  0  0  0  0
   34.0500   14.3600   46.8700 H   0  0  0  0  0  0  0  0  0  0  0  0
   33.0400   13.2700   45.8100 H   0  0  0  0  0  0  0  0  0  0  0  0
   32.9700   13.1000   47.5700 H   0  0  0  0  0  0  0  0  0  0  0  0
   31.9000   15.8800   45.7200 C   0  0  0  0  0  0  0  0  0  0  0  0
   30.8500   16.2200   45.5100 H   0  0  0  0  0  0  0  0  0  0  0  0
   32.4800   16.8100   45.9400 H   0  0  0  0  0  0  0  0  0  0  0  0
   32.4500   15.2900   44.4700 C   0  0  0  0  0  0  0  0  0  0  0  0
   33.5500   15.2500   44.5600 H   0  0  0  0  0  0  0  0  0  0  0  0
   32.0500   14.2700   44.2700 H   0  0  0  0  0  0  0  0  0  0  0  0
   31.9500   16.1300   43.3700 C   0  0  0  0  0  0  0  0  0  0  0  0
   30.8500   16.1300   43.4500 H   0  0  0  0  0  0  0  0  0  0  0  0
   32.3000   17.1800   43.4500 H   0  0  0  0  0  0  0  0  0  0  0  0
   32.4100   15.5200   42.0900 C   0  0  0  0  0  0  0  0  0  0  0  0
   32.2300   14.4200   42.0300 H   0  0  0  0  0  0  0  0  0  0  0  0
   31.5300   16.1900   41.0700 C   0  0  0  0  0  0  0  0  0  0  0  0
   31.3500   17.2700   41.1900 H   0  0  0  0  0  0  0  0  0  0  0  0
   31.4800   16.1400   39.9800 H   0  0  0  0  0  0  0  0  0  0  0  0
   30.7900   15.5800   40.6100 H   0  0  0  0  0  0  0  0  0  0  0  0
   33.9100   15.7900   42.1900 C   0  0  0  0  0  0  0  0  0  0  0  0
   34.1800   16.7900   42.5700 H   0  0  0  0  0  0  0  0  0  0  0  0
   34.4200   14.9800   42.7700 H   0  0  0  0  0  0  0  0  0  0  0  0
   34.3900   15.8300   41.2500 H   0  0  0  0  0  0  0  0  0  0  0  0
  1  2  1  1  0  0  0
  1  3  1  0  0  0  0
  3  4  1  0  0  0  0
  5  6  1  0  0  0  0
  5  7  1  0  0  0  0
  5  1  1  0  0  0  0
  8  5  1  0  0  0  0
  9  8  2  0  0  0  0
  9 10  1  0  0  0  0
 11  9  1  0  0  0  0
 12 11  1  0  0  0  0
 13 11  1  0  0  0  0
 14 15  1  1  0  0  0
 14 37  1  0  0  0  0
 14 11  1  0  0  0  0
 16 17  1  6  0  0  0
 16 14  1  0  0  0  0
 18 20  1  0  0  0  0
 18 16  1  0  0  0  0
 19 18  1  0  0  0  0
 21 18  1  0  0  0  0
 22 21  1  0  0  0  0
 23 21  1  0  0  0  0
 24 21  1  0  0  0  0
 24 25  1  1  0  0  0
 24 26  1  0  0  0  0
 26 27  1  6  0  0  0
 26 31  1  0  0  0  0
 26 16  1  0  0  0  0
 27 28  1  0  0  0  0
 29 27  1  0  0  0  0
 30 27  1  0  0  0  0
 31 33  1  0  0  0  0
 31 34  1  0  0  0  0
 32 31  1  0  0  0  0
 34 36  1  0  0  0  0
 34 37  1  0  0  0  0
 35 34  1  0  0  0  0
 37 38  1  1  0  0  0
 37 39  1  0  0  0  0
 39 40  1  6  0  0  0
 39 44  1  0  0  0  0
 39  8  1  0  0  0  0
 40 43  1  0  0  0  0
 41 40  1  0  0  0  0
 42 40  1  0  0  0  0
 44 47  1  0  0  0  0
 45 44  1  0  0  0  0
 46 44  1  0  0  0  0
 47 49  1  0  0  0  0
 47 48  1  0  0  0  0
 47  1  1  0  0  0  0
 50 51  1  6  0  0  0
 50 24  1  0  0  0  0
 52 50  1  0  0  0  0
 52 53  1  0  0  0  0
 52 55  1  0  0  0  0
 54 52  1  0  0  0  0
 56 58  1  0  0  0  0
 56 50  1  0  0  0  0
 57 56  1  0  0  0  0
 59 60  1  0  0  0  0
 59 56  1  0  0  0  0
 61 59  1  0  0  0  0
 62 64  1  0  0  0  0
 62 63  1  0  0  0  0
 62 59  1  0  0  0  0
 65 71  1  0  0  0  0
 65 62  1  0  0  0  0
 66 65  1  0  0  0  0
 67 68  1  0  0  0  0
 67 65  1  0  0  0  0
 69 67  1  0  0  0  0
 70 67  1  0  0  0  0
 71 72  1  0  0  0  0
 71 73  1  0  0  0  0
 74 71  1  0  0  0  0
M  END
