DLPA
 OpenBabel02161614153D

 88 87  0  0  1  0  0  0  0  0999 V2000
   27.8900   23.1400   54.8500 P   0  0  2  0  0  0  0  0  0  0  0  0
   29.0500   22.3600   54.4400 O   0  0  0  0  0  0  0  0  0  0  0  0
   28.0600   24.2000   55.8700 O   0  0  0  0  0  0  0  0  0  0  0  0
   26.8800   22.1600   55.4500 O   0  0  0  0  0  0  0  0  0  0  0  0
   27.2800   21.6500   56.1600 H   0  0  0  0  0  0  0  0  0  0  0  0
   27.1000   23.7200   53.6500 O   0  0  0  0  0  0  0  0  0  0  0  0
   27.7500   24.0000   52.4300 C   0  0  0  0  0  0  0  0  0  0  0  0
   28.4800   23.2000   52.1400 H   0  0  0  0  0  0  0  0  0  0  0  0
   28.2900   24.9700   52.5200 H   0  0  0  0  0  0  0  0  0  0  0  0
   26.6700   24.0500   51.3300 C   0  0  2  0  0  0  0  0  0  0  0  0
   25.8400   24.6900   51.7300 H   0  0  0  0  0  0  0  0  0  0  0  0
   26.2400   22.7100   51.0900 O   0  0  0  0  0  0  0  0  0  0  0  0
   25.0100   22.5500   50.6800 C   0  0  0  0  0  0  0  0  0  0  0  0
   24.1700   23.4000   50.5100 O   0  0  0  0  0  0  0  0  0  0  0  0
   24.8500   21.0800   50.3800 C   0  0  0  0  0  0  0  0  0  0  0  0
   23.7800   20.8100   50.3000 H   0  0  0  0  0  0  0  0  0  0  0  0
   25.3100   20.5100   51.2100 H   0  0  0  0  0  0  0  0  0  0  0  0
   27.2200   24.6700   50.0300 C   0  0  0  0  0  0  0  0  0  0  0  0
   28.0800   24.0500   49.6800 H   0  0  0  0  0  0  0  0  0  0  0  0
   27.6200   25.6600   50.3400 H   0  0  0  0  0  0  0  0  0  0  0  0
   26.1900   24.7900   49.0200 O   0  0  0  0  0  0  0  0  0  0  0  0
   26.6500   25.1400   47.8200 C   0  0  0  0  0  0  0  0  0  0  0  0
   27.8200   25.3500   47.5700 O   0  0  0  0  0  0  0  0  0  0  0  0
   25.4700   25.3000   46.8400 C   0  0  0  0  0  0  0  0  0  0  0  0
   24.7300   26.0000   47.3000 H   0  0  0  0  0  0  0  0  0  0  0  0
   24.9800   24.3200   46.7500 H   0  0  0  0  0  0  0  0  0  0  0  0
   25.5900   20.7700   49.0900 C   0  0  0  0  0  0  0  0  0  0  0  0
   25.6300   19.6600   49.0400 H   0  0  0  0  0  0  0  0  0  0  0  0
   26.6400   21.1700   49.1400 H   0  0  0  0  0  0  0  0  0  0  0  0
   24.9300   21.2800   47.8100 C   0  0  0  0  0  0  0  0  0  0  0  0
   24.7400   22.3700   47.8900 H   0  0  0  0  0  0  0  0  0  0  0  0
   23.9500   20.7600   47.6800 H   0  0  0  0  0  0  0  0  0  0  0  0
   25.8200   21.0300   46.5900 C   0  0  0  0  0  0  0  0  0  0  0  0
   25.9900   19.9600   46.4700 H   0  0  0  0  0  0  0  0  0  0  0  0
   26.8200   21.4900   46.7000 H   0  0  0  0  0  0  0  0  0  0  0  0
   25.1900   21.3700   45.2600 C   0  0  0  0  0  0  0  0  0  0  0  0
   25.0900   22.4700   45.1600 H   0  0  0  0  0  0  0  0  0  0  0  0
   24.1800   20.9100   45.1800 H   0  0  0  0  0  0  0  0  0  0  0  0
   26.0400   20.8100   44.1300 C   0  0  0  0  0  0  0  0  0  0  0  0
   26.0000   19.7000   44.1000 H   0  0  0  0  0  0  0  0  0  0  0  0
   27.1000   21.1000   44.2800 H   0  0  0  0  0  0  0  0  0  0  0  0
   25.5200   21.4000   42.8300 C   0  0  0  0  0  0  0  0  0  0  0  0
   25.4200   22.5000   42.9300 H   0  0  0  0  0  0  0  0  0  0  0  0
   24.5300   20.9600   42.5800 H   0  0  0  0  0  0  0  0  0  0  0  0
   26.4600   21.1300   41.6900 C   0  0  0  0  0  0  0  0  0  0  0  0
   26.1800   20.1000   41.4200 H   0  0  0  0  0  0  0  0  0  0  0  0
   27.5300   21.2000   42.0100 H   0  0  0  0  0  0  0  0  0  0  0  0
   26.2000   22.0900   40.5500 C   0  0  0  0  0  0  0  0  0  0  0  0
   25.1700   21.8800   40.1600 H   0  0  0  0  0  0  0  0  0  0  0  0
   26.2800   23.1400   40.8900 H   0  0  0  0  0  0  0  0  0  0  0  0
   27.1600   21.9700   39.4000 C   0  0  0  0  0  0  0  0  0  0  0  0
   28.1400   22.4700   39.6000 H   0  0  0  0  0  0  0  0  0  0  0  0
   26.6500   22.5000   38.5800 H   0  0  0  0  0  0  0  0  0  0  0  0
   27.5000   20.5500   39.0500 C   0  0  0  0  0  0  0  0  0  0  0  0
   26.7100   19.8100   39.3000 H   0  0  0  0  0  0  0  0  0  0  0  0
   28.5100   20.3600   39.4500 H   0  0  0  0  0  0  0  0  0  0  0  0
   27.6800   20.3400   38.0300 H   0  0  0  0  0  0  0  0  0  0  0  0
   25.9100   25.8000   45.4400 C   0  0  0  0  0  0  0  0  0  0  0  0
   26.5200   25.0000   44.9700 H   0  0  0  0  0  0  0  0  0  0  0  0
   26.5600   26.7000   45.5400 H   0  0  0  0  0  0  0  0  0  0  0  0
   24.7500   26.1400   44.4900 C   0  0  0  0  0  0  0  0  0  0  0  0
   24.2200   27.0500   44.8600 H   0  0  0  0  0  0  0  0  0  0  0  0
   24.0200   25.3000   44.4900 H   0  0  0  0  0  0  0  0  0  0  0  0
   25.2000   26.3600   43.0300 C   0  0  0  0  0  0  0  0  0  0  0  0
   24.3000   26.5100   42.3900 H   0  0  0  0  0  0  0  0  0  0  0  0
   25.7600   25.4900   42.6500 H   0  0  0  0  0  0  0  0  0  0  0  0
   26.0400   27.6100   42.8400 C   0  0  0  0  0  0  0  0  0  0  0  0
   26.7000   27.7800   43.7000 H   0  0  0  0  0  0  0  0  0  0  0  0
   25.2600   28.3800   42.9800 H   0  0  0  0  0  0  0  0  0  0  0  0
   26.7200   27.7300   41.4500 C   0  0  0  0  0  0  0  0  0  0  0  0
   27.1300   28.7700   41.3600 H   0  0  0  0  0  0  0  0  0  0  0  0
   25.9500   27.6300   40.6700 H   0  0  0  0  0  0  0  0  0  0  0  0
   27.8500   26.7100   41.1100 C   0  0  0  0  0  0  0  0  0  0  0  0
   27.4100   25.7200   40.8800 H   0  0  0  0  0  0  0  0  0  0  0  0
   28.4600   26.5400   42.0200 H   0  0  0  0  0  0  0  0  0  0  0  0
   28.8200   27.1600   39.9600 C   0  0  0  0  0  0  0  0  0  0  0  0
   29.0000   28.2500   39.9200 H   0  0  0  0  0  0  0  0  0  0  0  0
   28.3400   27.0200   38.9800 H   0  0  0  0  0  0  0  0  0  0  0  0
   30.2400   26.5600   40.0900 C   0  0  0  0  0  0  0  0  0  0  0  0
   30.6700   26.7400   41.1000 H   0  0  0  0  0  0  0  0  0  0  0  0
   30.9200   27.0500   39.3700 H   0  0  0  0  0  0  0  0  0  0  0  0
   30.2400   25.0600   39.8400 C   0  0  0  0  0  0  0  0  0  0  0  0
   29.6300   24.5700   40.6400 H   0  0  0  0  0  0  0  0  0  0  0  0
   31.2800   24.6700   39.9300 H   0  0  0  0  0  0  0  0  0  0  0  0
   29.6700   24.7400   38.4700 C   0  0  0  0  0  0  0  0  0  0  0  0
   29.4600   23.6600   38.3700 H   0  0  0  0  0  0  0  0  0  0  0  0
   30.3900   25.0600   37.6800 H   0  0  0  0  0  0  0  0  0  0  0  0
   28.7100   25.2600   38.2800 H   0  0  0  0  0  0  0  0  0  0  0  0
  1  6  1  6  0  0  0
  1  4  1  0  0  0  0
  1  3  1  0  0  0  0
  2  1  2  0  0  0  0
  4  5  1  0  0  0  0
  7  9  1  0  0  0  0
  7  6  1  0  0  0  0
  8  7  1  0  0  0  0
 10 11  1  1  0  0  0
 10  7  1  0  0  0  0
 12 10  1  0  0  0  0
 13 12  1  0  0  0  0
 14 13  2  0  0  0  0
 15 13  1  0  0  0  0
 15 17  1  0  0  0  0
 16 15  1  0  0  0  0
 18 20  1  0  0  0  0
 18 10  1  0  0  0  0
 19 18  1  0  0  0  0
 21 18  1  0  0  0  0
 22 21  1  0  0  0  0
 23 22  2  0  0  0  0
 24 25  1  0  0  0  0
 24 22  1  0  0  0  0
 26 24  1  0  0  0  0
 27 29  1  0  0  0  0
 27 15  1  0  0  0  0
 28 27  1  0  0  0  0
 30 31  1  0  0  0  0
 30 27  1  0  0  0  0
 32 30  1  0  0  0  0
 33 35  1  0  0  0  0
 33 30  1  0  0  0  0
 34 33  1  0  0  0  0
 36 33  1  0  0  0  0
 37 36  1  0  0  0  0
 38 36  1  0  0  0  0
 39 41  1  0  0  0  0
 39 36  1  0  0  0  0
 40 39  1  0  0  0  0
 42 43  1  0  0  0  0
 42 39  1  0  0  0  0
 44 42  1  0  0  0  0
 45 47  1  0  0  0  0
 45 42  1  0  0  0  0
 46 45  1  0  0  0  0
 48 50  1  0  0  0  0
 48 45  1  0  0  0  0
 49 48  1  0  0  0  0
 51 52  1  0  0  0  0
 51 48  1  0  0  0  0
 53 51  1  0  0  0  0
 54 55  1  0  0  0  0
 54 51  1  0  0  0  0
 54 56  1  0  0  0  0
 57 54  1  0  0  0  0
 58 60  1  0  0  0  0
 58 24  1  0  0  0  0
 59 58  1  0  0  0  0
 61 63  1  0  0  0  0
 61 62  1  0  0  0  0
 61 58  1  0  0  0  0
 64 61  1  0  0  0  0
 65 64  1  0  0  0  0
 66 64  1  0  0  0  0
 67 69  1  0  0  0  0
 67 64  1  0  0  0  0
 67 68  1  0  0  0  0
 70 67  1  0  0  0  0
 71 70  1  0  0  0  0
 72 70  1  0  0  0  0
 73 70  1  0  0  0  0
 73 75  1  0  0  0  0
 74 73  1  0  0  0  0
 76 79  1  0  0  0  0
 76 73  1  0  0  0  0
 77 76  1  0  0  0  0
 78 76  1  0  0  0  0
 79 80  1  0  0  0  0
 81 79  1  0  0  0  0
 82 84  1  0  0  0  0
 82 79  1  0  0  0  0
 82 83  1  0  0  0  0
 85 82  1  0  0  0  0
 86 85  1  0  0  0  0
 87 85  1  0  0  0  0
 88 85  1  0  0  0  0
M  END
