DEPG
 OpenBabel02161614153D

155154  0  0  1  0  0  0  0  0999 V2000
    2.7200   19.2100   63.0000 C   0  0  0  0  0  0  0  0  0  0  0  0
    1.6900   19.5200   62.7300 H   0  0  0  0  0  0  0  0  0  0  0  0
    3.4000   20.0500   62.8700 H   0  0  0  0  0  0  0  0  0  0  0  0
    2.7600   18.9300   64.3900 O   0  0  0  0  0  0  0  0  0  0  0  0
    2.4200   18.0300   64.4800 H   0  0  0  0  0  0  0  0  0  0  0  0
    3.2200   18.0300   62.1300 C   0  0  1  0  0  0  0  0  0  0  0  0
    2.6700   17.1200   62.4400 H   0  0  0  0  0  0  0  0  0  0  0  0
    2.8600   18.2500   60.7600 O   0  0  0  0  0  0  0  0  0  0  0  0
    2.5800   19.1800   60.7200 H   0  0  0  0  0  0  0  0  0  0  0  0
    4.7400   17.7200   62.3400 C   0  0  0  0  0  0  0  0  0  0  0  0
    5.0300   16.8300   61.7400 H   0  0  0  0  0  0  0  0  0  0  0  0
    4.8400   17.4400   63.4100 H   0  0  0  0  0  0  0  0  0  0  0  0
    7.1100   18.7700   62.5300 P   0  0  1  0  0  0  0  0  0  0  0  0
    7.3000   19.4400   63.8400 O   0  0  0  0  0  0  0  0  0  0  0  0
    7.6900   17.3900   62.4300 O   0  0  0  0  0  0  0  0  0  0  0  0
    5.6000   18.8400   62.0800 O   0  0  0  0  0  0  0  0  0  0  0  0
    7.8700   19.6300   61.4400 O   0  0  0  0  0  0  0  0  0  0  0  0
    7.4900   21.0000   61.2700 C   0  0  0  0  0  0  0  0  0  0  0  0
    8.3700   21.6500   61.4600 H   0  0  0  0  0  0  0  0  0  0  0  0
    6.7600   21.3400   62.0300 H   0  0  0  0  0  0  0  0  0  0  0  0
    6.9600   21.2800   59.8400 C   0  0  2  0  0  0  0  0  0  0  0  0
    6.4500   22.2800   59.8700 H   0  0  0  0  0  0  0  0  0  0  0  0
    6.0300   20.2400   59.4300 O   0  0  0  0  0  0  0  0  0  0  0  0
    5.3300   20.6000   58.3500 C   0  0  0  0  0  0  0  0  0  0  0  0
    5.3700   21.7100   57.8500 O   0  0  0  0  0  0  0  0  0  0  0  0
    4.5100   19.4000   57.8600 C   0  0  0  0  0  0  0  0  0  0  0  0
    3.5000   19.4300   58.3200 H   0  0  0  0  0  0  0  0  0  0  0  0
    5.0300   18.4700   58.1500 H   0  0  0  0  0  0  0  0  0  0  0  0
    8.1700   21.4000   58.8700 C   0  0  0  0  0  0  0  0  0  0  0  0
    8.7700   22.2600   59.2600 H   0  0  0  0  0  0  0  0  0  0  0  0
    7.8400   21.7000   57.8500 H   0  0  0  0  0  0  0  0  0  0  0  0
    9.0400   20.2500   58.8800 O   0  0  0  0  0  0  0  0  0  0  0  0
    8.8600   19.4000   57.8800 C   0  0  0  0  0  0  0  0  0  0  0  0
    7.9900   19.4800   57.0300 O   0  0  0  0  0  0  0  0  0  0  0  0
    9.8700   18.2700   58.0500 C   0  0  0  0  0  0  0  0  0  0  0  0
    9.5300   17.6900   58.9300 H   0  0  0  0  0  0  0  0  0  0  0  0
   10.8600   18.7200   58.3000 H   0  0  0  0  0  0  0  0  0  0  0  0
    4.3900   19.4300   56.3300 C   0  0  0  0  0  0  0  0  0  0  0  0
    5.3600   19.7500   55.8800 H   0  0  0  0  0  0  0  0  0  0  0  0
    3.6200   20.1700   56.0600 H   0  0  0  0  0  0  0  0  0  0  0  0
    3.9900   18.0800   55.7300 C   0  0  0  0  0  0  0  0  0  0  0  0
    3.0100   17.7800   56.1500 H   0  0  0  0  0  0  0  0  0  0  0  0
    4.7400   17.3100   56.0200 H   0  0  0  0  0  0  0  0  0  0  0  0
    3.9000   18.1400   54.2000 C   0  0  0  0  0  0  0  0  0  0  0  0
    3.2000   18.9600   53.9100 H   0  0  0  0  0  0  0  0  0  0  0  0
    3.4700   17.1900   53.8200 H   0  0  0  0  0  0  0  0  0  0  0  0
    5.2400   18.3900   53.5100 C   0  0  0  0  0  0  0  0  0  0  0  0
    5.9500   17.5900   53.7900 H   0  0  0  0  0  0  0  0  0  0  0  0
    5.6800   19.3600   53.8400 H   0  0  0  0  0  0  0  0  0  0  0  0
    5.0700   18.4600   51.9900 C   0  0  0  0  0  0  0  0  0  0  0  0
    4.2000   19.1000   51.7300 H   0  0  0  0  0  0  0  0  0  0  0  0
    4.8500   17.4500   51.6100 H   0  0  0  0  0  0  0  0  0  0  0  0
    6.2700   19.0400   51.2600 C   0  0  0  0  0  0  0  0  0  0  0  0
    6.5100   20.0500   51.6400 H   0  0  0  0  0  0  0  0  0  0  0  0
    6.0500   19.1100   50.1700 H   0  0  0  0  0  0  0  0  0  0  0  0
    7.5100   18.2100   51.3900 C   0  0  0  0  0  0  0  0  0  0  0  0
    7.9400   18.2100   52.4200 H   0  0  0  0  0  0  0  0  0  0  0  0
    8.2200   18.6700   50.6800 H   0  0  0  0  0  0  0  0  0  0  0  0
    7.3600   16.7900   50.9500 C   0  0  0  0  0  0  0  0  0  0  0  0
    6.9300   16.6700   49.9400 H   0  0  0  0  0  0  0  0  0  0  0  0
    6.7100   16.2500   51.6800 H   0  0  0  0  0  0  0  0  0  0  0  0
    8.7500   16.2200   50.9800 C   0  0  0  0  0  0  0  0  0  0  0  0
    8.5600   15.1400   50.8800 H   0  0  0  0  0  0  0  0  0  0  0  0
    9.1900   16.3600   51.9900 H   0  0  0  0  0  0  0  0  0  0  0  0
    9.7500   16.8000   49.9200 C   0  0  0  0  0  0  0  0  0  0  0  0
   10.7800   16.6600   50.3100 H   0  0  0  0  0  0  0  0  0  0  0  0
    9.6500   17.8500   49.7300 H   0  0  0  0  0  0  0  0  0  0  0  0
    9.8200   16.2700   48.5500 C   0  0  0  0  0  0  0  0  0  0  0  0
   10.5900   15.5400   48.3600 H   0  0  0  0  0  0  0  0  0  0  0  0
    9.2400   16.7100   47.5000 C   0  0  0  0  0  0  0  0  0  0  0  0
    9.2200   16.0300   46.6300 H   0  0  0  0  0  0  0  0  0  0  0  0
    8.3400   17.9000   47.4900 C   0  0  0  0  0  0  0  0  0  0  0  0
    8.3400   18.4500   48.4300 H   0  0  0  0  0  0  0  0  0  0  0  0
    7.2700   17.6900   47.2600 H   0  0  0  0  0  0  0  0  0  0  0  0
    9.0100   18.6700   46.4000 C   0  0  0  0  0  0  0  0  0  0  0  0
   10.1000   18.7500   46.5400 H   0  0  0  0  0  0  0  0  0  0  0  0
    8.5900   19.6900   46.3900 H   0  0  0  0  0  0  0  0  0  0  0  0
    8.7000   18.0600   45.0700 C   0  0  0  0  0  0  0  0  0  0  0  0
    9.1500   17.0800   44.7800 H   0  0  0  0  0  0  0  0  0  0  0  0
    8.9800   18.7500   44.3400 H   0  0  0  0  0  0  0  0  0  0  0  0
    7.3300   18.3900   44.6900 C   0  0  0  0  0  0  0  0  0  0  0  0
    7.0600   19.4200   45.0200 H   0  0  0  0  0  0  0  0  0  0  0  0
    6.6400   17.8000   45.3100 H   0  0  0  0  0  0  0  0  0  0  0  0
    7.2600   18.3500   43.1400 C   0  0  0  0  0  0  0  0  0  0  0  0
    7.5500   19.3500   42.7400 H   0  0  0  0  0  0  0  0  0  0  0  0
    6.2100   18.4400   43.3900 H   0  0  0  0  0  0  0  0  0  0  0  0
    7.8600   17.1000   42.2400 C   0  0  0  0  0  0  0  0  0  0  0  0
    7.8100   16.2100   42.8200 H   0  0  0  0  0  0  0  0  0  0  0  0
    8.9000   17.3700   42.3600 H   0  0  0  0  0  0  0  0  0  0  0  0
    7.3900   16.5800   40.6600 C   0  0  0  0  0  0  0  0  0  0  0  0
    7.0300   17.4900   40.3000 H   0  0  0  0  0  0  0  0  0  0  0  0
    6.3700   16.3700   40.3700 H   0  0  0  0  0  0  0  0  0  0  0  0
    8.0000   15.6400   39.5500 C   0  0  0  0  0  0  0  0  0  0  0  0
    8.8700   16.0500   39.0500 H   0  0  0  0  0  0  0  0  0  0  0  0
    8.2200   14.6300   39.8900 H   0  0  0  0  0  0  0  0  0  0  0  0
    7.5500   15.6800   38.5400 H   0  0  0  0  0  0  0  0  0  0  0  0
   10.0200   17.3700   56.8100 C   0  0  0  0  0  0  0  0  0  0  0  0
   10.8900   16.6800   56.9800 H   0  0  0  0  0  0  0  0  0  0  0  0
   10.3000   17.9900   55.9400 H   0  0  0  0  0  0  0  0  0  0  0  0
    8.7500   16.5600   56.5200 C   0  0  0  0  0  0  0  0  0  0  0  0
    7.8900   17.2100   56.2800 H   0  0  0  0  0  0  0  0  0  0  0  0
    8.5100   15.9500   57.4100 H   0  0  0  0  0  0  0  0  0  0  0  0
    8.9200   15.5400   55.4000 C   0  0  0  0  0  0  0  0  0  0  0  0
    9.8200   15.0200   55.7400 H   0  0  0  0  0  0  0  0  0  0  0  0
    9.1000   16.0000   54.4100 H   0  0  0  0  0  0  0  0  0  0  0  0
    7.9100   14.3900   55.3700 C   0  0  0  0  0  0  0  0  0  0  0  0
    7.9300   13.8800   56.3500 H   0  0  0  0  0  0  0  0  0  0  0  0
    8.2900   13.6700   54.6100 H   0  0  0  0  0  0  0  0  0  0  0  0
    6.4800   14.8500   55.0700 C   0  0  0  0  0  0  0  0  0  0  0  0
    6.5300   15.4500   54.1400 H   0  0  0  0  0  0  0  0  0  0  0  0
    6.1200   15.5400   55.8500 H   0  0  0  0  0  0  0  0  0  0  0  0
    5.4600   13.7100   54.9700 C   0  0  0  0  0  0  0  0  0  0  0  0
    4.4100   14.0800   54.8800 H   0  0  0  0  0  0  0  0  0  0  0  0
    5.5500   12.9800   55.8000 H   0  0  0  0  0  0  0  0  0  0  0  0
    5.7100   12.9900   53.6900 C   0  0  0  0  0  0  0  0  0  0  0  0
    5.0600   12.1100   53.5200 H   0  0  0  0  0  0  0  0  0  0  0  0
    6.7600   12.6200   53.8000 H   0  0  0  0  0  0  0  0  0  0  0  0
    5.7600   13.9100   52.4700 C   0  0  0  0  0  0  0  0  0  0  0  0
    5.4500   13.2100   51.6800 H   0  0  0  0  0  0  0  0  0  0  0  0
    6.7600   14.3300   52.2700 H   0  0  0  0  0  0  0  0  0  0  0  0
    4.6000   14.6700   51.9800 C   0  0  0  0  0  0  0  0  0  0  0  0
    4.5300   15.6200   52.5200 H   0  0  0  0  0  0  0  0  0  0  0  0
    3.8100   13.9400   52.3000 H   0  0  0  0  0  0  0  0  0  0  0  0
    4.5800   14.8800   50.4300 C   0  0  0  0  0  0  0  0  0  0  0  0
    4.4000   13.8700   49.9600 H   0  0  0  0  0  0  0  0  0  0  0  0
    5.5500   15.1700   50.0200 H   0  0  0  0  0  0  0  0  0  0  0  0
    3.6500   15.9800   49.9500 C   0  0  0  0  0  0  0  0  0  0  0  0
    2.8900   16.3300   50.6300 H   0  0  0  0  0  0  0  0  0  0  0  0
    3.3800   16.3300   48.7000 C   0  0  0  0  0  0  0  0  0  0  0  0
    2.4100   16.7900   48.4800 H   0  0  0  0  0  0  0  0  0  0  0  0
    3.9700   15.7100   47.5400 C   0  0  0  0  0  0  0  0  0  0  0  0
    3.7200   14.7200   47.1700 H   0  0  0  0  0  0  0  0  0  0  0  0
    4.8700   15.3800   47.9500 H   0  0  0  0  0  0  0  0  0  0  0  0
    4.0000   16.8000   46.5200 C   0  0  0  0  0  0  0  0  0  0  0  0
    4.5100   16.2900   45.7400 H   0  0  0  0  0  0  0  0  0  0  0  0
    4.6400   17.6200   46.9100 H   0  0  0  0  0  0  0  0  0  0  0  0
    2.7300   17.2600   45.8000 C   0  0  0  0  0  0  0  0  0  0  0  0
    3.0400   18.2000   45.3000 H   0  0  0  0  0  0  0  0  0  0  0  0
    1.9200   17.4500   46.5300 H   0  0  0  0  0  0  0  0  0  0  0  0
    2.1800   16.3200   44.6900 C   0  0  0  0  0  0  0  0  0  0  0  0
    1.2100   15.9800   45.0900 H   0  0  0  0  0  0  0  0  0  0  0  0
    2.8500   15.4500   44.5400 H   0  0  0  0  0  0  0  0  0  0  0  0
    1.6900   16.9400   43.3700 C   0  0  0  0  0  0  0  0  0  0  0  0
    1.8900   18.0300   43.4200 H   0  0  0  0  0  0  0  0  0  0  0  0
    0.6000   16.7400   43.2800 H   0  0  0  0  0  0  0  0  0  0  0  0
    2.1600   16.3500   42.0500 C   0  0  0  0  0  0  0  0  0  0  0  0
    3.1500   16.1800   42.2800 H   0  0  0  0  0  0  0  0  0  0  0  0
    2.2100   17.0800   41.2300 H   0  0  0  0  0  0  0  0  0  0  0  0
    1.9400   14.8700   41.7100 C   0  0  0  0  0  0  0  0  0  0  0  0
    0.9300   14.5100   41.7800 H   0  0  0  0  0  0  0  0  0  0  0  0
    2.5400   14.2400   42.4100 H   0  0  0  0  0  0  0  0  0  0  0  0
    2.4600   14.5900   40.3300 C   0  0  0  0  0  0  0  0  0  0  0  0
    3.3400   15.2300   40.3900 H   0  0  0  0  0  0  0  0  0  0  0  0
    2.6400   13.5100   40.1500 H   0  0  0  0  0  0  0  0  0  0  0  0
    2.2400   15.0800   39.3900 H   0  0  0  0  0  0  0  0  0  0  0  0
  1  4  1  0  0  0  0
  2  1  1  0  0  0  0
  3  1  1  0  0  0  0
  4  5  1  0  0  0  0
  6 10  1  0  0  0  0
  6  7  1  1  0  0  0
  6  1  1  0  0  0  0
  8  6  1  0  0  0  0
  9  8  1  0  0  0  0
 10 12  1  0  0  0  0
 11 10  1  0  0  0  0
 13 17  1  6  0  0  0
 13 14  1  0  0  0  0
 15 13  2  0  0  0  0
 16 10  1  0  0  0  0
 16 13  1  0  0  0  0
 18 17  1  0  0  0  0
 18 19  1  0  0  0  0
 18 20  1  0  0  0  0
 21 22  1  1  0  0  0
 21 18  1  0  0  0  0
 23 21  1  0  0  0  0
 24 23  1  0  0  0  0
 25 24  2  0  0  0  0
 26 28  1  0  0  0  0
 26 27  1  0  0  0  0
 26 24  1  0  0  0  0
 29 32  1  0  0  0  0
 29 30  1  0  0  0  0
 29 21  1  0  0  0  0
 31 29  1  0  0  0  0
 33 35  1  0  0  0  0
 33 32  1  0  0  0  0
 34 33  2  0  0  0  0
 35 37  1  0  0  0  0
 35 36  1  0  0  0  0
 38 26  1  0  0  0  0
 39 38  1  0  0  0  0
 40 38  1  0  0  0  0
 41 43  1  0  0  0  0
 41 42  1  0  0  0  0
 41 38  1  0  0  0  0
 44 41  1  0  0  0  0
 45 44  1  0  0  0  0
 46 44  1  0  0  0  0
 47 48  1  0  0  0  0
 47 49  1  0  0  0  0
 47 44  1  0  0  0  0
 50 47  1  0  0  0  0
 51 50  1  0  0  0  0
 52 50  1  0  0  0  0
 53 56  1  0  0  0  0
 53 54  1  0  0  0  0
 53 50  1  0  0  0  0
 55 53  1  0  0  0  0
 56 57  1  0  0  0  0
 58 56  1  0  0  0  0
 59 62  1  0  0  0  0
 59 56  1  0  0  0  0
 59 61  1  0  0  0  0
 60 59  1  0  0  0  0
 62 64  1  0  0  0  0
 63 62  1  0  0  0  0
 65 66  1  0  0  0  0
 65 62  1  0  0  0  0
 67 65  1  0  0  0  0
 68 65  1  0  0  0  0
 69 68  1  0  0  0  0
 70 68  1  0  0  0  0
 71 70  1  0  0  0  0
 72 70  1  0  0  0  0
 72 73  1  0  0  0  0
 74 72  1  0  0  0  0
 75 76  1  0  0  0  0
 75 72  1  0  0  0  0
 77 75  1  0  0  0  0
 78 75  1  0  0  0  0
 79 78  1  0  0  0  0
 80 78  1  0  0  0  0
 81 82  1  0  0  0  0
 81 78  1  0  0  0  0
 81 83  1  0  0  0  0
 84 86  1  0  0  0  0
 84 81  1  0  0  0  0
 85 84  1  0  0  0  0
 87 89  1  0  0  0  0
 87 88  1  0  0  0  0
 87 84  1  0  0  0  0
 90 87  1  0  0  0  0
 91 90  1  0  0  0  0
 92 90  1  0  0  0  0
 93 95  1  0  0  0  0
 93 90  1  0  0  0  0
 94 93  1  0  0  0  0
 96 93  1  0  0  0  0
 97 98  1  0  0  0  0
 97 35  1  0  0  0  0
 99 97  1  0  0  0  0
100 97  1  0  0  0  0
100102  1  0  0  0  0
101100  1  0  0  0  0
103104  1  0  0  0  0
103100  1  0  0  0  0
105103  1  0  0  0  0
106103  1  0  0  0  0
106107  1  0  0  0  0
108106  1  0  0  0  0
109106  1  0  0  0  0
109111  1  0  0  0  0
110109  1  0  0  0  0
112109  1  0  0  0  0
112114  1  0  0  0  0
113112  1  0  0  0  0
115117  1  0  0  0  0
115112  1  0  0  0  0
116115  1  0  0  0  0
118115  1  0  0  0  0
119118  1  0  0  0  0
120118  1  0  0  0  0
121123  1  0  0  0  0
121118  1  0  0  0  0
121122  1  0  0  0  0
124121  1  0  0  0  0
125124  1  0  0  0  0
126124  1  0  0  0  0
127124  1  0  0  0  0
127128  1  0  0  0  0
129127  1  0  0  0  0
130129  1  0  0  0  0
131133  1  0  0  0  0
131129  1  0  0  0  0
132131  1  0  0  0  0
134136  1  0  0  0  0
134131  1  0  0  0  0
135134  1  0  0  0  0
137134  1  0  0  0  0
137139  1  0  0  0  0
138137  1  0  0  0  0
140141  1  0  0  0  0
140137  1  0  0  0  0
142140  1  0  0  0  0
143144  1  0  0  0  0
143140  1  0  0  0  0
145143  1  0  0  0  0
146147  1  0  0  0  0
146143  1  0  0  0  0
148146  1  0  0  0  0
149150  1  0  0  0  0
149146  1  0  0  0  0
149151  1  0  0  0  0
152153  1  0  0  0  0
152149  1  0  0  0  0
154152  1  0  0  0  0
155152  1  0  0  0  0
M  END
