DAPS
 OpenBabel02161614153D

131128  0  0  1  0  0  0  0  0999 V2000
   42.0600   72.6800   58.0100 N   0  0  0  0  0  0  0  0  0  0  0  0
   42.1200   71.6600   57.8500 H   0  0  0  0  0  0  0  0  0  0  0  0
   42.0800   73.1500   57.0800 H   0  0  0  0  0  0  0  0  0  0  0  0
   42.8200   73.0300   58.6400 H   0  0  0  0  0  0  0  0  0  0  0  0
   40.7500   72.9500   58.6500 C   0  0  1  0  0  0  0  0  0  0  0  0
   40.6400   72.1800   59.3600 H   0  0  0  0  0  0  0  0  0  0  0  0
   40.6700   74.0700   59.6900 C   0  0  0  0  0  0  0  0  0  0  0  0
   41.7500   74.3900   60.2600 O   0  0  0  0  0  0  0  0  0  0  0  0
   39.5400   74.4000   60.1100 O   0  0  0  0  0  0  0  0  0  0  0  0
   39.6500   72.9400   57.5300 C   0  0  0  0  0  0  0  0  0  0  0  0
   39.8400   73.5400   56.6300 H   0  0  0  0  0  0  0  0  0  0  0  0
   38.7300   73.3800   57.9600 H   0  0  0  0  0  0  0  0  0  0  0  0
   38.3500   71.5400   55.8300 P   0  0  2  0  0  0  0  0  0  0  0  0
   37.2800   72.5000   56.1800 O   0  0  0  0  0  0  0  0  0  0  0  0
   38.0400   70.1000   55.7500 O   0  0  0  0  0  0  0  0  0  0  0  0
   39.4900   71.6500   56.9600 O   0  0  0  0  0  0  0  0  0  0  0  0
   39.1100   72.0500   54.5300 O   0  0  0  0  0  0  0  0  0  0  0  0
   38.5300   71.7600   53.2400 C   0  0  0  0  0  0  0  0  0  0  0  0
   38.6200   72.6400   52.5700 H   0  0  0  0  0  0  0  0  0  0  0  0
   37.4300   71.6400   53.3400 H   0  0  0  0  0  0  0  0  0  0  0  0
   39.2600   70.5500   52.5700 C   0  0  2  0  0  0  0  0  0  0  0  0
   39.0600   69.6600   53.2300 H   0  0  0  0  0  0  0  0  0  0  0  0
   40.6400   70.8600   52.5000 O   0  0  0  0  0  0  0  0  0  0  0  0
   41.4600   69.8700   52.3300 C   0  0  0  0  0  0  0  0  0  0  0  0
   41.2200   68.6800   52.3900 O   0  0  0  0  0  0  0  0  0  0  0  0
   42.7600   70.5200   51.9400 C   0  0  0  0  0  0  0  0  0  0  0  0
   43.5700   69.8500   52.2700 H   0  0  0  0  0  0  0  0  0  0  0  0
   42.9500   71.4900   52.4200 H   0  0  0  0  0  0  0  0  0  0  0  0
   38.8300   70.1800   51.1200 C   0  0  0  0  0  0  0  0  0  0  0  0
   38.1400   69.4200   51.4300 H   0  0  0  0  0  0  0  0  0  0  0  0
   39.4400   69.4300   50.6000 H   0  0  0  0  0  0  0  0  0  0  0  0
   38.3700   71.2900   50.2800 O   0  0  0  0  0  0  0  0  0  0  0  0
   37.7100   71.3000   49.1100 C   0  0  0  0  0  0  0  0  0  0  0  0
   37.1500   70.4600   48.5000 O   0  0  0  0  0  0  0  0  0  0  0  0
   37.8200   72.5400   48.3600 C   0  0  0  0  0  0  0  0  0  0  0  0
   38.6300   72.3000   47.6400 H   0  0  0  0  0  0  0  0  0  0  0  0
   37.9500   73.3800   49.0000 H   0  0  0  0  0  0  0  0  0  0  0  0
   42.6600   70.8400   50.4500 C   0  0  0  0  0  0  0  0  0  0  0  0
   43.4800   71.5800   50.2700 H   0  0  0  0  0  0  0  0  0  0  0  0
   41.7100   71.2800   50.1100 H   0  0  0  0  0  0  0  0  0  0  0  0
   42.8600   69.5700   49.6700 C   0  0  0  0  0  0  0  0  0  0  0  0
   43.5900   69.1000   50.3600 H   0  0  0  0  0  0  0  0  0  0  0  0
   43.2500   69.9500   48.7000 H   0  0  0  0  0  0  0  0  0  0  0  0
   41.9900   68.4000   49.4300 C   0  0  0  0  0  0  0  0  0  0  0  0
   42.1700   67.5400   50.0800 H   0  0  0  0  0  0  0  0  0  0  0  0
   41.0600   68.3200   48.4900 C   0  0  0  0  0  0  0  0  0  0  0  0
   40.3900   67.4700   48.5400 H   0  0  0  0  0  0  0  0  0  0  0  0
   40.7000   69.3800   47.5000 C   0  0  0  0  0  0  0  0  0  0  0  0
   41.1800   70.3400   47.7900 H   0  0  0  0  0  0  0  0  0  0  0  0
   39.6100   69.5400   47.6000 H   0  0  0  0  0  0  0  0  0  0  0  0
   41.0400   68.9000   46.1100 C   0  0  0  0  0  0  0  0  0  0  0  0
   41.6300   67.9800   46.0100 H   0  0  0  0  0  0  0  0  0  0  0  0
   40.7800   69.5600   44.9800 C   0  0  0  0  0  0  0  0  0  0  0  0
   40.9800   69.1000   43.9900 H   0  0  0  0  0  0  0  0  0  0  0  0
   40.0900   70.8900   44.9300 C   0  0  0  0  0  0  0  0  0  0  0  0
   40.5700   71.5100   44.1400 H   0  0  0  0  0  0  0  0  0  0  0  0
   40.0600   71.4300   45.8800 H   0  0  0  0  0  0  0  0  0  0  0  0
   38.7000   70.5800   44.6400 C   0  0  0  0  0  0  0  0  0  0  0  0
   37.8700   70.7700   45.3600 H   0  0  0  0  0  0  0  0  0  0  0  0
   38.4200   70.5300   43.3800 C   0  0  0  0  0  0  0  0  0  0  0  0
   37.3500   70.2900   43.3600 H   0  0  0  0  0  0  0  0  0  0  0  0
   39.2600   70.7800   42.0900 C   0  0  0  0  0  0  0  0  0  0  0  0
   38.7200   70.2200   41.2400 H   0  0  0  0  0  0  0  0  0  0  0  0
   40.0400   70.1200   41.7300 H   0  0  0  0  0  0  0  0  0  0  0  0
   39.5000   72.3500   42.0300 C   0  0  0  0  0  0  0  0  0  0  0  0
   39.8800   72.8700   42.8900 H   0  0  0  0  0  0  0  0  0  0  0  0
   39.2300   73.2900   41.1400 C   0  0  0  0  0  0  0  0  0  0  0  0
   39.0300   74.3900   41.3100 H   0  0  0  0  0  0  0  0  0  0  0  0
   38.6400   72.9700   39.9500 C   0  0  0  0  0  0  0  0  0  0  0  0
   37.7300   73.8000   40.1400 H   0  0  0  0  0  0  0  0  0  0  0  0
   37.7100   72.6000   39.9800 H   0  0  0  0  0  0  0  0  0  0  0  0
   39.4000   72.1900   38.3900 C   0  0  0  0  0  0  0  0  0  0  0  0
   39.0700   72.6600   37.2600 H   0  0  0  0  0  0  0  0  0  0  0  0
   38.9000   72.2500   37.3400 H   0  0  0  0  0  0  0  0  0  0  0  0
   40.5300   71.7400   38.3300 C   0  0  0  0  0  0  0  0  0  0  0  0
   40.0800   70.7400   38.5000 H   0  0  0  0  0  0  0  0  0  0  0  0
   40.7600   72.3300   39.2200 H   0  0  0  0  0  0  0  0  0  0  0  0
   41.0500   72.1000   36.9700 C   0  0  0  0  0  0  0  0  0  0  0  0
   42.0200   71.8500   37.1200 H   0  0  0  0  0  0  0  0  0  0  0  0
   41.1400   73.0900   36.5000 H   0  0  0  0  0  0  0  0  0  0  0  0
   40.3600   71.3100   35.9600 C   0  0  0  0  0  0  0  0  0  0  0  0
   40.6000   71.4000   34.9200 H   0  0  0  0  0  0  0  0  0  0  0  0
   39.6100   71.9500   35.8100 H   0  0  0  0  0  0  0  0  0  0  0  0
   40.0500   70.2800   36.2600 H   0  0  0  0  0  0  0  0  0  0  0  0
   36.6100   72.7800   47.5000 C   0  0  0  0  0  0  0  0  0  0  0  0
   35.7100   72.6100   48.1200 H   0  0  0  0  0  0  0  0  0  0  0  0
   36.7900   72.0400   46.6800 H   0  0  0  0  0  0  0  0  0  0  0  0
   36.4500   74.1500   46.9300 C   0  0  0  0  0  0  0  0  0  0  0  0
   36.1000   74.7700   47.7800 H   0  0  0  0  0  0  0  0  0  0  0  0
   35.5600   74.3400   46.3200 H   0  0  0  0  0  0  0  0  0  0  0  0
   37.7700   74.4100   46.2000 C   0  0  0  0  0  0  0  0  0  0  0  0
   38.1900   73.7800   45.4300 H   0  0  0  0  0  0  0  0  0  0  0  0
   38.4800   75.4400   46.4900 C   0  0  0  0  0  0  0  0  0  0  0  0
   39.4900   75.7000   46.1000 H   0  0  0  0  0  0  0  0  0  0  0  0
   37.8400   76.1900   47.5000 C   0  0  0  0  0  0  0  0  0  0  0  0
   37.0300   76.9200   47.2100 H   0  0  0  0  0  0  0  0  0  0  0  0
   38.5400   76.8500   47.2000 H   0  0  0  0  0  0  0  0  0  0  0  0
   37.9600   75.8800   48.9900 C   0  0  0  0  0  0  0  0  0  0  0  0
   37.0700   76.3000   49.5000 H   0  0  0  0  0  0  0  0  0  0  0  0
   39.0300   75.5600   49.7400 C   0  0  0  0  0  0  0  0  0  0  0  0
   38.9100   75.4500   50.8300 H   0  0  0  0  0  0  0  0  0  0  0  0
   40.4500   75.4000   49.2600 C   0  0  0  0  0  0  0  0  0  0  0  0
   41.1200   75.8400   50.0200 H   0  0  0  0  0  0  0  0  0  0  0  0
   40.6400   75.9500   48.3200 H   0  0  0  0  0  0  0  0  0  0  0  0
   40.8100   73.9600   49.0600 C   0  0  0  0  0  0  0  0  0  0  0  0
   40.3200   73.2300   49.7200 H   0  0  0  0  0  0  0  0  0  0  0  0
   41.6700   73.5100   48.1400 C   0  0  0  0  0  0  0  0  0  0  0  0
   41.7600   72.4200   48.0300 H   0  0  0  0  0  0  0  0  0  0  0  0
   42.4100   74.3500   47.1400 C   0  0  0  0  0  0  0  0  0  0  0  0
   42.6700   75.3700   47.5000 H   0  0  0  0  0  0  0  0  0  0  0  0
   41.7400   74.4900   46.2600 H   0  0  0  0  0  0  0  0  0  0  0  0
   43.6600   73.6500   46.7300 C   0  0  0  0  0  0  0  0  0  0  0  0
   44.4000   73.3800   47.5100 H   0  0  0  0  0  0  0  0  0  0  0  0
   43.9600   73.3300   45.4900 C   0  0  0  0  0  0  0  0  0  0  0  0
   44.7900   72.7100   45.4800 H   0  0  0  0  0  0  0  0  0  0  0  0
   43.3000   73.5000   44.1700 C   0  0  0  0  0  0  0  0  0  0  0  0
   43.7800   74.3800   43.7000 H   0  0  0  0  0  0  0  0  0  0  0  0
   42.2400   73.7300   44.3100 H   0  0  0  0  0  0  0  0  0  0  0  0
   43.2900   72.2800   43.2300 C   0  0  0  0  0  0  0  0  0  0  0  0
   42.5500   71.5300   43.6000 H   0  0  0  0  0  0  0  0  0  0  0  0
   44.2700   71.7600   43.2300 H   0  0  0  0  0  0  0  0  0  0  0  0
   42.8700   72.7100   41.8200 C   0  0  0  0  0  0  0  0  0  0  0  0
   43.7600   73.1500   41.3100 H   0  0  0  0  0  0  0  0  0  0  0  0
   42.0300   73.4100   41.8600 H   0  0  0  0  0  0  0  0  0  0  0  0
   42.4900   71.5900   40.9600 C   0  0  0  0  0  0  0  0  0  0  0  0
   42.4300   71.8500   39.8700 H   0  0  0  0  0  0  0  0  0  0  0  0
   41.5300   71.0800   41.1800 H   0  0  0  0  0  0  0  0  0  0  0  0
   43.6300   70.6900   41.3000 C   0  0  0  0  0  0  0  0  0  0  0  0
   43.3300   70.1400   40.5700 H   0  0  0  0  0  0  0  0  0  0  0  0
   43.5300   69.8200   41.9800 H   0  0  0  0  0  0  0  0  0  0  0  0
   44.5900   70.8900   40.8400 H   0  0  0  0  0  0  0  0  0  0  0  0
  1  4  1  0  0  0  0
  1  5  1  0  0  0  0
  2  1  1  0  0  0  0
  3  1  1  0  0  0  0
  5  6  1  1  0  0  0
  5  7  1  0  0  0  0
  7  9  2  0  0  0  0
  7  8  1  0  0  0  0
 10 12  1  0  0  0  0
 10  5  1  0  0  0  0
 11 10  1  0  0  0  0
 13 17  1  6  0  0  0
 13 14  1  0  0  0  0
 13 16  1  0  0  0  0
 15 13  2  0  0  0  0
 16 10  1  0  0  0  0
 18 20  1  0  0  0  0
 18 17  1  0  0  0  0
 19 18  1  0  0  0  0
 21 22  1  1  0  0  0
 21 18  1  0  0  0  0
 23 21  1  0  0  0  0
 24 25  2  0  0  0  0
 24 23  1  0  0  0  0
 26 27  1  0  0  0  0
 26 24  1  0  0  0  0
 26 28  1  0  0  0  0
 29 30  1  0  0  0  0
 29 21  1  0  0  0  0
 31 29  1  0  0  0  0
 32 29  1  0  0  0  0
 33 32  1  0  0  0  0
 34 33  2  0  0  0  0
 35 37  1  0  0  0  0
 35 33  1  0  0  0  0
 36 35  1  0  0  0  0
 38 26  1  0  0  0  0
 39 38  1  0  0  0  0
 40 38  1  0  0  0  0
 41 42  1  0  0  0  0
 41 38  1  0  0  0  0
 43 41  1  0  0  0  0
 44 41  1  0  0  0  0
 44 45  1  0  0  0  0
 46 47  1  0  0  0  0
 46 44  2  0  0  0  0
 48 50  1  0  0  0  0
 48 49  1  0  0  0  0
 48 46  1  0  0  0  0
 51 48  1  0  0  0  0
 52 51  1  0  0  0  0
 53 51  2  0  0  0  0
 54 53  1  0  0  0  0
 55 53  1  0  0  0  0
 55 57  1  0  0  0  0
 56 55  1  0  0  0  0
 58 55  1  0  0  0  0
 58 59  1  0  0  0  0
 60 58  1  0  0  0  0
 61 60  1  0  0  0  0
 62 60  1  0  0  0  0
 63 62  1  0  0  0  0
 64 62  1  0  0  0  0
 65 62  1  0  0  0  0
 65 66  1  0  0  0  0
 67 68  1  0  0  0  0
 67 65  1  0  0  0  0
 69 71  1  0  0  0  0
 69 70  1  0  0  0  0
 69 67  1  0  0  0  0
 74 72  1  0  0  0  0
 75 72  1  0  0  0  0
 75 76  1  0  0  0  0
 75 77  1  0  0  0  0
 78 79  1  0  0  0  0
 78 75  1  0  0  0  0
 80 78  1  0  0  0  0
 81 84  1  0  0  0  0
 81 78  1  0  0  0  0
 82 81  1  0  0  0  0
 83 81  1  0  0  0  0
 85 86  1  0  0  0  0
 85 35  1  0  0  0  0
 87 85  1  0  0  0  0
 88 85  1  0  0  0  0
 88 89  1  0  0  0  0
 90 88  1  0  0  0  0
 91 93  2  0  0  0  0
 91 88  1  0  0  0  0
 92 91  1  0  0  0  0
 93 95  1  0  0  0  0
 94 93  1  0  0  0  0
 95 98  1  0  0  0  0
 96 95  1  0  0  0  0
 97 95  1  0  0  0  0
 98 99  1  0  0  0  0
 98100  1  0  0  0  0
100101  1  0  0  0  0
102100  1  0  0  0  0
102103  1  0  0  0  0
104102  1  0  0  0  0
105102  1  0  0  0  0
105106  1  0  0  0  0
107105  2  0  0  0  0
108107  1  0  0  0  0
109110  1  0  0  0  0
109107  1  0  0  0  0
111109  1  0  0  0  0
112109  1  0  0  0  0
112113  1  0  0  0  0
114112  2  0  0  0  0
115114  1  0  0  0  0
116118  1  0  0  0  0
116114  1  0  0  0  0
117116  1  0  0  0  0
119121  1  0  0  0  0
119120  1  0  0  0  0
119116  1  0  0  0  0
122124  1  0  0  0  0
122119  1  0  0  0  0
123122  1  0  0  0  0
125127  1  0  0  0  0
125128  1  0  0  0  0
125122  1  0  0  0  0
126125  1  0  0  0  0
128130  1  0  0  0  0
129128  1  0  0  0  0
131128  1  0  0  0  0
M  END
