CER241
 OpenBabel02161614153D

127121  0  0  1  0  0  0  0  0999 V2000
   30.3800   55.9400   65.3800 O   0  0  0  0  0  0  0  0  0  0  0  0
   30.1400   56.8700   65.4000 H   0  0  0  0  0  0  0  0  0  0  0  0
   29.4100   55.3300   64.5500 C   0  0  0  0  0  0  0  0  0  0  0  0
   29.6600   54.2600   64.4800 H   0  0  0  0  0  0  0  0  0  0  0  0
   28.4500   55.4400   65.0800 H   0  0  0  0  0  0  0  0  0  0  0  0
   28.2700   55.6100   62.2800 N   0  0  0  0  0  0  0  0  0  0  0  0
   28.4700   55.1400   61.4400 H   0  0  0  0  0  0  0  0  0  0  0  0
   29.3800   55.9800   63.1300 C   0  0  2  0  0  0  0  0  0  0  0  0
   29.3400   57.0600   63.3300 H   0  0  0  0  0  0  0  0  0  0  0  0
   30.6600   55.5900   62.4300 C   0  0  2  0  0  0  0  0  0  0  0  0
   30.6600   54.4800   62.4000 H   0  0  0  0  0  0  0  0  0  0  0  0
   31.8300   56.0500   63.0900 O   0  0  0  0  0  0  0  0  0  0  0  0
   31.5500   56.1300   64.0200 H   0  0  0  0  0  0  0  0  0  0  0  0
   30.6800   56.1200   61.0100 C   0  0  0  0  0  0  0  0  0  0  0  0
   30.6400   57.2100   60.8700 H   0  0  0  0  0  0  0  0  0  0  0  0
   30.7500   55.3100   59.9500 C   0  0  0  0  0  0  0  0  0  0  0  0
   30.8100   54.2200   60.0800 H   0  0  0  0  0  0  0  0  0  0  0  0
   30.7900   55.7500   58.5300 C   0  0  0  0  0  0  0  0  0  0  0  0
   31.7600   56.2700   58.3800 H   0  0  0  0  0  0  0  0  0  0  0  0
   29.9400   56.4200   58.2300 H   0  0  0  0  0  0  0  0  0  0  0  0
   30.9200   54.5700   57.5800 C   0  0  0  0  0  0  0  0  0  0  0  0
   30.0700   53.9000   57.7900 H   0  0  0  0  0  0  0  0  0  0  0  0
   31.8100   53.9300   57.6800 H   0  0  0  0  0  0  0  0  0  0  0  0
   31.1300   55.1900   56.1900 C   0  0  0  0  0  0  0  0  0  0  0  0
   31.9600   55.8800   56.2300 H   0  0  0  0  0  0  0  0  0  0  0  0
   30.2800   55.9000   56.0800 H   0  0  0  0  0  0  0  0  0  0  0  0
   31.5900   54.2100   55.0200 C   0  0  0  0  0  0  0  0  0  0  0  0
   30.8100   53.5800   55.0500 H   0  0  0  0  0  0  0  0  0  0  0  0
   32.1900   53.3500   55.2700 H   0  0  0  0  0  0  0  0  0  0  0  0
   31.5300   54.6000   53.5000 C   0  0  0  0  0  0  0  0  0  0  0  0
   32.1900   55.4200   53.4600 H   0  0  0  0  0  0  0  0  0  0  0  0
   30.8500   55.3800   53.2600 H   0  0  0  0  0  0  0  0  0  0  0  0
   31.2200   53.6100   52.3200 C   0  0  0  0  0  0  0  0  0  0  0  0
   30.2300   53.0800   52.2800 H   0  0  0  0  0  0  0  0  0  0  0  0
   31.9500   52.8000   52.3900 H   0  0  0  0  0  0  0  0  0  0  0  0
   31.0600   54.3300   50.9700 C   0  0  0  0  0  0  0  0  0  0  0  0
   31.9500   54.9500   50.8500 H   0  0  0  0  0  0  0  0  0  0  0  0
   30.2300   55.0600   50.8700 H   0  0  0  0  0  0  0  0  0  0  0  0
   30.8000   53.3500   49.8800 C   0  0  0  0  0  0  0  0  0  0  0  0
   29.8900   52.7200   49.9500 H   0  0  0  0  0  0  0  0  0  0  0  0
   31.6700   52.6500   49.8500 H   0  0  0  0  0  0  0  0  0  0  0  0
   30.7600   54.1500   48.6200 C   0  0  0  0  0  0  0  0  0  0  0  0
   31.4500   55.0000   48.5700 H   0  0  0  0  0  0  0  0  0  0  0  0
   29.7400   54.4100   48.2100 H   0  0  0  0  0  0  0  0  0  0  0  0
   31.4000   53.2400   47.7400 C   0  0  0  0  0  0  0  0  0  0  0  0
   30.6300   52.4900   47.9300 H   0  0  0  0  0  0  0  0  0  0  0  0
   32.3800   52.7400   47.8600 H   0  0  0  0  0  0  0  0  0  0  0  0
   31.0800   53.8000   46.5100 C   0  0  0  0  0  0  0  0  0  0  0  0
   31.2900   54.8100   46.1500 H   0  0  0  0  0  0  0  0  0  0  0  0
   30.0200   53.5000   46.3200 H   0  0  0  0  0  0  0  0  0  0  0  0
   31.5100   52.9500   45.7000 C   0  0  0  0  0  0  0  0  0  0  0  0
   32.0600   51.9500   45.9300 H   0  0  0  0  0  0  0  0  0  0  0  0
   32.7200   53.1300   45.6000 H   0  0  0  0  0  0  0  0  0  0  0  0
   30.1400   53.3100   44.4500 C   0  0  0  0  0  0  0  0  0  0  0  0
   29.9100   53.0400   43.4200 H   0  0  0  0  0  0  0  0  0  0  0  0
   30.2300   52.8300   43.3200 H   0  0  0  0  0  0  0  0  0  0  0  0
   30.7800   53.9000   44.1900 H   0  0  0  0  0  0  0  0  0  0  0  0
   27.0600   55.8300   62.6000 C   0  0  0  0  0  0  0  0  0  0  0  0
   26.8000   56.6500   63.4400 O   0  0  0  0  0  0  0  0  0  0  0  0
   26.1300   54.8800   62.0600 C   0  0  0  0  0  0  0  0  0  0  0  0
   25.2400   54.9800   62.7000 H   0  0  0  0  0  0  0  0  0  0  0  0
   26.4700   53.8200   62.1500 H   0  0  0  0  0  0  0  0  0  0  0  0
   25.8800   55.2000   60.5800 C   0  0  0  0  0  0  0  0  0  0  0  0
   26.6100   55.7600   60.0300 H   0  0  0  0  0  0  0  0  0  0  0  0
   25.0800   55.9200   60.4800 H   0  0  0  0  0  0  0  0  0  0  0  0
   25.6200   54.0500   59.6700 C   0  0  0  0  0  0  0  0  0  0  0  0
   24.9200   53.3300   60.1000 H   0  0  0  0  0  0  0  0  0  0  0  0
   26.2700   53.2100   59.5400 H   0  0  0  0  0  0  0  0  0  0  0  0
   25.0600   54.5700   58.3800 C   0  0  0  0  0  0  0  0  0  0  0  0
   24.3600   55.4400   58.3700 H   0  0  0  0  0  0  0  0  0  0  0  0
   24.4800   53.6700   58.3900 H   0  0  0  0  0  0  0  0  0  0  0  0
   25.8400   55.1200   57.2500 C   0  0  0  0  0  0  0  0  0  0  0  0
   26.5800   54.3400   57.2300 H   0  0  0  0  0  0  0  0  0  0  0  0
   26.0900   56.0700   57.7400 H   0  0  0  0  0  0  0  0  0  0  0  0
   25.2400   55.3800   55.8400 C   0  0  0  0  0  0  0  0  0  0  0  0
   24.4900   56.2100   55.6600 H   0  0  0  0  0  0  0  0  0  0  0  0
   24.8500   54.4400   55.3500 H   0  0  0  0  0  0  0  0  0  0  0  0
   26.0900   55.8700   54.9200 C   0  0  0  0  0  0  0  0  0  0  0  0
   25.5400   55.7300   53.9600 H   0  0  0  0  0  0  0  0  0  0  0  0
   26.7000   55.0000   54.9200 H   0  0  0  0  0  0  0  0  0  0  0  0
   26.5800   57.2900   55.1400 C   0  0  0  0  0  0  0  0  0  0  0  0
   27.0300   57.4100   56.1400 H   0  0  0  0  0  0  0  0  0  0  0  0
   25.6300   57.8700   55.1100 H   0  0  0  0  0  0  0  0  0  0  0  0
   27.6000   57.8900   54.1400 C   0  0  0  0  0  0  0  0  0  0  0  0
   28.3400   57.1300   53.9900 H   0  0  0  0  0  0  0  0  0  0  0  0
   28.2400   58.6300   54.5800 H   0  0  0  0  0  0  0  0  0  0  0  0
   26.9600   58.4100   52.8500 C   0  0  0  0  0  0  0  0  0  0  0  0
   26.6000   59.4000   53.1600 H   0  0  0  0  0  0  0  0  0  0  0  0
   26.0100   57.9200   52.7900 H   0  0  0  0  0  0  0  0  0  0  0  0
   27.8000   58.7100   51.5600 C   0  0  0  0  0  0  0  0  0  0  0  0
   28.7900   59.0600   51.8400 H   0  0  0  0  0  0  0  0  0  0  0  0
   27.1800   59.4200   50.9700 H   0  0  0  0  0  0  0  0  0  0  0  0
   28.0300   57.6900   50.4700 C   0  0  0  0  0  0  0  0  0  0  0  0
   27.0000   57.3800   50.1100 H   0  0  0  0  0  0  0  0  0  0  0  0
   28.6700   56.9400   51.0500 H   0  0  0  0  0  0  0  0  0  0  0  0
   29.0000   57.4800   49.3900 C   0  0  0  0  0  0  0  0  0  0  0  0
   28.8900   56.4100   49.0700 H   0  0  0  0  0  0  0  0  0  0  0  0
   29.9700   57.6900   49.9100 H   0  0  0  0  0  0  0  0  0  0  0  0
   28.3900   58.4600   48.4800 C   0  0  0  0  0  0  0  0  0  0  0  0
   28.6500   59.4800   48.7300 H   0  0  0  0  0  0  0  0  0  0  0  0
   27.5400   58.1600   47.4900 C   0  0  0  0  0  0  0  0  0  0  0  0
   27.1800   58.9800   46.8700 H   0  0  0  0  0  0  0  0  0  0  0  0
   27.0300   56.8000   47.1000 C   0  0  0  0  0  0  0  0  0  0  0  0
   25.9900   56.8200   46.7300 H   0  0  0  0  0  0  0  0  0  0  0  0
   27.0800   56.1000   47.9300 H   0  0  0  0  0  0  0  0  0  0  0  0
   27.9000   56.1200   46.0900 C   0  0  0  0  0  0  0  0  0  0  0  0
   27.4700   55.1200   45.8300 H   0  0  0  0  0  0  0  0  0  0  0  0
   28.8900   55.8900   46.5300 H   0  0  0  0  0  0  0  0  0  0  0  0
   28.0900   57.0000   44.8900 C   0  0  0  0  0  0  0  0  0  0  0  0
   28.4400   58.0300   45.1000 H   0  0  0  0  0  0  0  0  0  0  0  0
   27.2400   57.0200   44.1700 H   0  0  0  0  0  0  0  0  0  0  0  0
   29.2300   56.5100   44.1600 C   0  0  0  0  0  0  0  0  0  0  0  0
   28.9500   55.4200   44.2100 H   0  0  0  0  0  0  0  0  0  0  0  0
   30.2200   56.4800   44.6700 H   0  0  0  0  0  0  0  0  0  0  0  0
   29.1800   57.2400   42.7700 C   0  0  0  0  0  0  0  0  0  0  0  0
   30.0700   56.8900   42.3100 H   0  0  0  0  0  0  0  0  0  0  0  0
   29.6100   58.1800   42.5100 H   0  0  0  0  0  0  0  0  0  0  0  0
   27.9900   57.0000   41.7600 C   0  0  0  0  0  0  0  0  0  0  0  0
   28.2600   57.3300   40.7300 H   0  0  0  0  0  0  0  0  0  0  0  0
   27.2400   57.6600   42.1500 H   0  0  0  0  0  0  0  0  0  0  0  0
   26.9500   55.8500   41.7800 C   0  0  0  0  0  0  0  0  0  0  0  0
   27.0200   55.3200   42.7100 H   0  0  0  0  0  0  0  0  0  0  0  0
   27.1600   54.8100   42.1900 H   0  0  0  0  0  0  0  0  0  0  0  0
   25.9900   55.9000   40.5000 C   0  0  0  0  0  0  0  0  0  0  0  0
   25.3500   54.9900   40.2200 H   0  0  0  0  0  0  0  0  0  0  0  0
   26.5500   56.1200   39.5300 H   0  0  0  0  0  0  0  0  0  0  0  0
   25.4000   56.6700   40.9000 H   0  0  0  0  0  0  0  0  0  0  0  0
  1  2  1  0  0  0  0
  3  5  1  0  0  0  0
  3  1  1  0  0  0  0
  4  3  1  0  0  0  0
  6 58  1  0  0  0  0
  6  8  1  0  0  0  0
  7  6  1  0  0  0  0
  8  9  1  1  0  0  0
  8  3  1  0  0  0  0
 10 11  1  6  0  0  0
 10 12  1  0  0  0  0
 10  8  1  0  0  0  0
 12 13  1  0  0  0  0
 14 10  1  0  0  0  0
 15 14  1  0  0  0  0
 16 17  1  0  0  0  0
 16 14  2  0  0  0  0
 18 16  1  0  0  0  0
 19 18  1  0  0  0  0
 20 18  1  0  0  0  0
 21 23  1  0  0  0  0
 21 22  1  0  0  0  0
 21 18  1  0  0  0  0
 24 25  1  0  0  0  0
 24 21  1  0  0  0  0
 26 24  1  0  0  0  0
 27 28  1  0  0  0  0
 27 29  1  0  0  0  0
 27 24  1  0  0  0  0
 30 27  1  0  0  0  0
 31 30  1  0  0  0  0
 32 30  1  0  0  0  0
 33 35  1  0  0  0  0
 33 30  1  0  0  0  0
 34 33  1  0  0  0  0
 36 33  1  0  0  0  0
 37 36  1  0  0  0  0
 38 36  1  0  0  0  0
 39 40  1  0  0  0  0
 39 36  1  0  0  0  0
 41 39  1  0  0  0  0
 42 39  1  0  0  0  0
 43 42  1  0  0  0  0
 44 42  1  0  0  0  0
 45 47  1  0  0  0  0
 45 46  1  0  0  0  0
 45 42  1  0  0  0  0
 48 45  1  0  0  0  0
 49 48  1  0  0  0  0
 50 48  1  0  0  0  0
 51 52  1  0  0  0  0
 51 48  1  0  0  0  0
 53 51  1  0  0  0  0
 55 54  1  0  0  0  0
 57 54  1  0  0  0  0
 58 59  2  0  0  0  0
 60 62  1  0  0  0  0
 60 58  1  0  0  0  0
 60 61  1  0  0  0  0
 63 60  1  0  0  0  0
 64 63  1  0  0  0  0
 65 63  1  0  0  0  0
 66 67  1  0  0  0  0
 66 63  1  0  0  0  0
 68 66  1  0  0  0  0
 69 71  1  0  0  0  0
 69 66  1  0  0  0  0
 70 69  1  0  0  0  0
 72 74  1  0  0  0  0
 72 69  1  0  0  0  0
 73 72  1  0  0  0  0
 75 72  1  0  0  0  0
 76 75  1  0  0  0  0
 77 75  1  0  0  0  0
 78 80  1  0  0  0  0
 78 81  1  0  0  0  0
 78 75  1  0  0  0  0
 79 78  1  0  0  0  0
 81 82  1  0  0  0  0
 83 81  1  0  0  0  0
 84 86  1  0  0  0  0
 84 81  1  0  0  0  0
 85 84  1  0  0  0  0
 87 88  1  0  0  0  0
 87 84  1  0  0  0  0
 89 87  1  0  0  0  0
 90 91  1  0  0  0  0
 90 87  1  0  0  0  0
 92 90  1  0  0  0  0
 93 95  1  0  0  0  0
 93 90  1  0  0  0  0
 94 93  1  0  0  0  0
 96 98  1  0  0  0  0
 96 93  1  0  0  0  0
 97 96  1  0  0  0  0
 99100  1  0  0  0  0
 99 96  1  0  0  0  0
101 99  2  0  0  0  0
102101  1  0  0  0  0
103101  1  0  0  0  0
103105  1  0  0  0  0
104103  1  0  0  0  0
106108  1  0  0  0  0
106103  1  0  0  0  0
107106  1  0  0  0  0
109110  1  0  0  0  0
109106  1  0  0  0  0
111109  1  0  0  0  0
112113  1  0  0  0  0
112114  1  0  0  0  0
112109  1  0  0  0  0
115112  1  0  0  0  0
116115  1  0  0  0  0
117115  1  0  0  0  0
118120  1  0  0  0  0
118115  1  0  0  0  0
119118  1  0  0  0  0
121122  1  0  0  0  0
124127  1  0  0  0  0
125124  1  0  0  0  0
126124  1  0  0  0  0
M  END
