SLPG
 OpenBabel02161614153D

131130  0  0  1  0  0  0  0  0999 V2000
   41.8100   39.3200   56.2900 C   0  0  0  0  0  0  0  0  0  0  0  0
   42.7300   38.9200   55.7900 H   0  0  0  0  0  0  0  0  0  0  0  0
   41.6500   40.3300   55.9200 H   0  0  0  0  0  0  0  0  0  0  0  0
   40.6800   38.5700   55.8500 O   0  0  0  0  0  0  0  0  0  0  0  0
   40.7600   37.6700   56.1800 H   0  0  0  0  0  0  0  0  0  0  0  0
   42.0700   39.3300   57.8200 C   0  0  1  0  0  0  0  0  0  0  0  0
   42.2200   38.2600   58.0800 H   0  0  0  0  0  0  0  0  0  0  0  0
   43.2600   40.0800   58.1000 O   0  0  0  0  0  0  0  0  0  0  0  0
   43.1600   41.0000   57.8000 H   0  0  0  0  0  0  0  0  0  0  0  0
   41.0600   39.8300   58.8700 C   0  0  0  0  0  0  0  0  0  0  0  0
   41.1400   40.9100   59.0700 H   0  0  0  0  0  0  0  0  0  0  0  0
   41.3900   39.3600   59.8200 H   0  0  0  0  0  0  0  0  0  0  0  0
   38.8000   38.9400   59.7300 P   0  0  2  0  0  0  0  0  0  0  0  0
   38.3100   40.0800   60.5500 O   0  0  0  0  0  0  0  0  0  0  0  0
   39.4300   37.8500   60.5000 O   0  0  0  0  0  0  0  0  0  0  0  0
   39.7400   39.4600   58.5700 O   0  0  0  0  0  0  0  0  0  0  0  0
   37.6400   38.3600   58.8600 O   0  0  0  0  0  0  0  0  0  0  0  0
   36.7200   39.3100   58.3700 C   0  0  0  0  0  0  0  0  0  0  0  0
   35.9600   39.4800   59.1800 H   0  0  0  0  0  0  0  0  0  0  0  0
   37.1300   40.3000   58.0600 H   0  0  0  0  0  0  0  0  0  0  0  0
   35.9800   38.6900   57.2100 C   0  0  2  0  0  0  0  0  0  0  0  0
   35.6800   37.7300   57.6800 H   0  0  0  0  0  0  0  0  0  0  0  0
   36.7400   38.4600   56.0100 O   0  0  0  0  0  0  0  0  0  0  0  0
   36.8500   37.2500   55.4300 C   0  0  0  0  0  0  0  0  0  0  0  0
   36.2100   36.2700   55.7300 O   0  0  0  0  0  0  0  0  0  0  0  0
   37.0800   37.5000   53.9500 C   0  0  0  0  0  0  0  0  0  0  0  0
   36.9300   38.5600   53.7400 H   0  0  0  0  0  0  0  0  0  0  0  0
   38.1400   37.2400   53.8100 H   0  0  0  0  0  0  0  0  0  0  0  0
   34.7900   39.6900   56.9500 C   0  0  0  0  0  0  0  0  0  0  0  0
   34.3300   39.8800   57.9400 H   0  0  0  0  0  0  0  0  0  0  0  0
   33.9500   39.3100   56.3800 H   0  0  0  0  0  0  0  0  0  0  0  0
   35.1700   40.9300   56.4100 O   0  0  0  0  0  0  0  0  0  0  0  0
   34.5300   41.2900   55.2800 C   0  0  2  0  0  0  0  0  0  0  0  0
   33.8500   40.5400   54.5900 O   0  0  0  0  0  0  0  0  0  0  0  0
   35.6500   42.0400   54.6300 C   0  0  0  0  0  0  0  0  0  0  0  0
   35.8600   42.9500   55.2500 H   0  0  0  0  0  0  0  0  0  0  0  0
   35.2000   42.3500   53.6700 H   0  0  0  0  0  0  0  0  0  0  0  0
   36.2600   36.7400   52.8900 C   0  0  0  0  0  0  0  0  0  0  0  0
   35.5700   35.9300   53.2300 H   0  0  0  0  0  0  0  0  0  0  0  0
   37.0000   36.2300   52.2300 H   0  0  0  0  0  0  0  0  0  0  0  0
   35.5700   37.7300   51.9700 C   0  0  0  0  0  0  0  0  0  0  0  0
   36.1400   38.6500   51.7500 H   0  0  0  0  0  0  0  0  0  0  0  0
   34.6200   38.0800   52.4200 H   0  0  0  0  0  0  0  0  0  0  0  0
   35.3500   37.0300   50.6600 C   0  0  0  0  0  0  0  0  0  0  0  0
   34.5900   36.3000   50.9900 H   0  0  0  0  0  0  0  0  0  0  0  0
   36.1700   36.3900   50.2900 H   0  0  0  0  0  0  0  0  0  0  0  0
   35.0100   38.0300   49.5600 C   0  0  0  0  0  0  0  0  0  0  0  0
   34.5300   37.4500   48.7400 H   0  0  0  0  0  0  0  0  0  0  0  0
   35.8800   38.5200   49.1000 H   0  0  0  0  0  0  0  0  0  0  0  0
   34.1400   39.1800   50.0500 C   0  0  0  0  0  0  0  0  0  0  0  0
   34.4300   39.9200   50.8200 H   0  0  0  0  0  0  0  0  0  0  0  0
   33.4800   38.6300   50.7200 H   0  0  0  0  0  0  0  0  0  0  0  0
   33.4000   39.7900   48.9400 C   0  0  0  0  0  0  0  0  0  0  0  0
   32.3900   40.0300   49.3800 H   0  0  0  0  0  0  0  0  0  0  0  0
   33.1100   39.2000   48.0100 H   0  0  0  0  0  0  0  0  0  0  0  0
   33.1200   41.0900   48.6400 C   0  0  0  0  0  0  0  0  0  0  0  0
   33.4500   41.7600   49.5400 H   0  0  0  0  0  0  0  0  0  0  0  0
   33.4800   41.3800   47.4500 C   0  0  0  0  0  0  0  0  0  0  0  0
   33.0800   42.4000   47.4000 H   0  0  0  0  0  0  0  0  0  0  0  0
   33.8600   40.6600   46.1000 C   0  0  0  0  0  0  0  0  0  0  0  0
   33.3200   41.2400   45.4300 H   0  0  0  0  0  0  0  0  0  0  0  0
   33.5300   39.6100   46.0600 H   0  0  0  0  0  0  0  0  0  0  0  0
   35.3700   40.6800   45.5200 C   0  0  0  0  0  0  0  0  0  0  0  0
   35.9000   41.6600   45.4500 H   0  0  0  0  0  0  0  0  0  0  0  0
   36.0500   39.8500   44.7300 C   0  0  0  0  0  0  0  0  0  0  0  0
   37.0200   40.1600   44.3000 H   0  0  0  0  0  0  0  0  0  0  0  0
   35.6500   38.4400   44.4500 C   0  0  0  0  0  0  0  0  0  0  0  0
   34.5600   38.3300   44.6600 H   0  0  0  0  0  0  0  0  0  0  0  0
   36.2300   37.7400   45.0200 H   0  0  0  0  0  0  0  0  0  0  0  0
   35.8600   38.2200   42.9400 C   0  0  0  0  0  0  0  0  0  0  0  0
   35.5500   37.1700   42.7000 H   0  0  0  0  0  0  0  0  0  0  0  0
   36.9000   38.3800   42.5900 H   0  0  0  0  0  0  0  0  0  0  0  0
   34.9400   39.1500   42.2300 C   0  0  0  0  0  0  0  0  0  0  0  0
   34.9500   40.2100   42.5600 H   0  0  0  0  0  0  0  0  0  0  0  0
   33.9500   38.7900   42.5400 H   0  0  0  0  0  0  0  0  0  0  0  0
   35.0800   39.2000   40.7600 C   0  0  0  0  0  0  0  0  0  0  0  0
   34.8800   38.2200   40.2700 H   0  0  0  0  0  0  0  0  0  0  0  0
   36.0600   39.5000   40.3300 H   0  0  0  0  0  0  0  0  0  0  0  0
   34.0900   40.2800   40.4700 C   0  0  0  0  0  0  0  0  0  0  0  0
   33.6200   39.9400   39.5500 H   0  0  0  0  0  0  0  0  0  0  0  0
   34.5000   41.3000   40.5400 H   0  0  0  0  0  0  0  0  0  0  0  0
   33.1400   40.4600   40.9000 H   0  0  0  0  0  0  0  0  0  0  0  0
   36.8800   41.0800   54.5100 C   0  0  0  0  0  0  0  0  0  0  0  0
   36.6500   40.3900   53.6700 H   0  0  0  0  0  0  0  0  0  0  0  0
   37.1700   40.5900   55.4500 H   0  0  0  0  0  0  0  0  0  0  0  0
   38.1800   41.7500   54.1600 C   0  0  0  0  0  0  0  0  0  0  0  0
   38.3300   42.6200   54.8200 H   0  0  0  0  0  0  0  0  0  0  0  0
   37.7500   41.9700   53.2200 H   0  0  0  0  0  0  0  0  0  0  0  0
   39.4800   41.1000   53.6800 C   0  0  0  0  0  0  0  0  0  0  0  0
   39.9000   40.6200   54.5800 H   0  0  0  0  0  0  0  0  0  0  0  0
   40.1300   41.9300   53.3000 H   0  0  0  0  0  0  0  0  0  0  0  0
   39.5000   39.9800   52.6600 C   0  0  0  0  0  0  0  0  0  0  0  0
   38.7800   39.2500   53.0700 H   0  0  0  0  0  0  0  0  0  0  0  0
   40.5300   39.5600   52.6400 H   0  0  0  0  0  0  0  0  0  0  0  0
   39.0900   40.3000   51.2400 C   0  0  0  0  0  0  0  0  0  0  0  0
   39.6200   41.1700   50.8000 H   0  0  0  0  0  0  0  0  0  0  0  0
   38.0200   40.4700   51.4600 H   0  0  0  0  0  0  0  0  0  0  0  0
   39.1100   39.1500   50.2600 C   0  0  0  0  0  0  0  0  0  0  0  0
   38.6300   38.3100   50.8100 H   0  0  0  0  0  0  0  0  0  0  0  0
   40.1700   38.9400   50.0300 H   0  0  0  0  0  0  0  0  0  0  0  0
   38.3300   39.3200   48.9400 C   0  0  0  0  0  0  0  0  0  0  0  0
   37.3600   39.8500   49.0400 H   0  0  0  0  0  0  0  0  0  0  0  0
   38.0700   38.2900   48.6100 H   0  0  0  0  0  0  0  0  0  0  0  0
   39.1400   39.9300   47.7900 C   0  0  0  0  0  0  0  0  0  0  0  0
   38.6600   39.5500   46.8500 H   0  0  0  0  0  0  0  0  0  0  0  0
   40.2000   39.6300   47.7900 H   0  0  0  0  0  0  0  0  0  0  0  0
   39.0900   41.4300   47.7200 C   0  0  0  0  0  0  0  0  0  0  0  0
   39.5400   42.0300   48.5400 H   0  0  0  0  0  0  0  0  0  0  0  0
   38.0600   41.7500   47.6900 H   0  0  0  0  0  0  0  0  0  0  0  0
   39.5200   41.8500   46.3700 C   0  0  0  0  0  0  0  0  0  0  0  0
   39.1000   41.1500   45.6000 H   0  0  0  0  0  0  0  0  0  0  0  0
   40.6200   41.8500   46.3000 H   0  0  0  0  0  0  0  0  0  0  0  0
   38.8700   43.1600   46.0400 C   0  0  0  0  0  0  0  0  0  0  0  0
   39.2400   44.0200   46.6300 H   0  0  0  0  0  0  0  0  0  0  0  0
   37.7900   43.0800   46.0500 H   0  0  0  0  0  0  0  0  0  0  0  0
   39.0400   43.2600   44.6000 C   0  0  0  0  0  0  0  0  0  0  0  0
   38.6300   42.4500   43.9600 H   0  0  0  0  0  0  0  0  0  0  0  0
   40.0800   43.0400   44.6600 H   0  0  0  0  0  0  0  0  0  0  0  0
   38.8000   44.5800   44.0200 C   0  0  0  0  0  0  0  0  0  0  0  0
   38.9100   45.5000   44.6000 H   0  0  0  0  0  0  0  0  0  0  0  0
   37.7100   44.4500   43.8200 H   0  0  0  0  0  0  0  0  0  0  0  0
   39.8300   44.6500   42.8900 C   0  0  0  0  0  0  0  0  0  0  0  0
   39.8500   43.7700   42.1900 H   0  0  0  0  0  0  0  0  0  0  0  0
   40.8000   45.0500   42.9800 H   0  0  0  0  0  0  0  0  0  0  0  0
   39.8700   45.8300   42.1500 C   0  0  0  0  0  0  0  0  0  0  0  0
   40.5900   45.8400   41.2500 H   0  0  0  0  0  0  0  0  0  0  0  0
   40.0500   46.8300   42.5600 H   0  0  0  0  0  0  0  0  0  0  0  0
   38.4700   45.4200   41.9300 C   0  0  0  0  0  0  0  0  0  0  0  0
   37.9300   44.4500   41.8900 H   0  0  0  0  0  0  0  0  0  0  0  0
   39.0000   45.0000   41.0800 H   0  0  0  0  0  0  0  0  0  0  0  0
   37.7700   46.2100   41.7000 H   0  0  0  0  0  0  0  0  0  0  0  0
  1  6  1  0  0  0  0
  2  1  1  0  0  0  0
  3  1  1  0  0  0  0
  4  5  1  0  0  0  0
  4  1  1  0  0  0  0
  6  7  1  1  0  0  0
  6  8  1  0  0  0  0
  6 10  1  0  0  0  0
  9  8  1  0  0  0  0
 10 11  1  0  0  0  0
 10 12  1  0  0  0  0
 13 16  1  6  0  0  0
 13 15  2  0  0  0  0
 13 14  1  0  0  0  0
 16 10  1  0  0  0  0
 17 13  1  0  0  0  0
 18 17  1  0  0  0  0
 18 19  1  0  0  0  0
 20 18  1  0  0  0  0
 21 22  1  1  0  0  0
 21 18  1  0  0  0  0
 23 21  1  0  0  0  0
 24 25  2  0  0  0  0
 24 23  1  0  0  0  0
 26 24  1  0  0  0  0
 27 26  1  0  0  0  0
 28 26  1  0  0  0  0
 29 21  1  0  0  0  0
 29 30  1  0  0  0  0
 31 29  1  0  0  0  0
 32 29  1  0  0  0  0
 33 34  1  6  0  0  0
 33 32  1  0  0  0  0
 35 36  1  0  0  0  0
 35 33  1  0  0  0  0
 37 35  1  0  0  0  0
 38 39  1  0  0  0  0
 38 26  1  0  0  0  0
 40 38  1  0  0  0  0
 41 43  1  0  0  0  0
 41 38  1  0  0  0  0
 42 41  1  0  0  0  0
 44 45  1  0  0  0  0
 44 41  1  0  0  0  0
 46 44  1  0  0  0  0
 47 50  1  0  0  0  0
 47 44  1  0  0  0  0
 48 47  1  0  0  0  0
 49 47  1  0  0  0  0
 50 52  1  0  0  0  0
 50 51  1  0  0  0  0
 53 54  1  0  0  0  0
 53 50  1  0  0  0  0
 55 53  1  0  0  0  0
 56 53  1  0  0  0  0
 56 57  1  0  0  0  0
 58 56  1  0  0  0  0
 59 58  1  0  0  0  0
 60 58  1  0  0  0  0
 61 60  1  0  0  0  0
 62 60  1  0  0  0  0
 63 60  1  0  0  0  0
 64 63  1  0  0  0  0
 65 63  1  0  0  0  0
 66 65  1  0  0  0  0
 67 68  1  0  0  0  0
 67 65  1  0  0  0  0
 67 69  1  0  0  0  0
 70 67  1  0  0  0  0
 71 70  1  0  0  0  0
 72 70  1  0  0  0  0
 73 75  1  0  0  0  0
 73 74  1  0  0  0  0
 73 70  1  0  0  0  0
 76 73  1  0  0  0  0
 77 76  1  0  0  0  0
 78 76  1  0  0  0  0
 79 81  1  0  0  0  0
 79 76  1  0  0  0  0
 79 82  1  0  0  0  0
 80 79  1  0  0  0  0
 83 35  1  0  0  0  0
 83 85  1  0  0  0  0
 84 83  1  0  0  0  0
 86 83  1  0  0  0  0
 86 87  1  0  0  0  0
 88 86  1  0  0  0  0
 89 86  1  0  0  0  0
 89 90  1  0  0  0  0
 91 89  1  0  0  0  0
 92 93  1  0  0  0  0
 92 89  1  0  0  0  0
 94 92  1  0  0  0  0
 95 97  1  0  0  0  0
 95 92  1  0  0  0  0
 96 95  1  0  0  0  0
 98 99  1  0  0  0  0
 98 95  1  0  0  0  0
100 98  1  0  0  0  0
101102  1  0  0  0  0
101 98  1  0  0  0  0
103101  1  0  0  0  0
104101  1  0  0  0  0
105104  1  0  0  0  0
106104  1  0  0  0  0
107104  1  0  0  0  0
107108  1  0  0  0  0
109107  1  0  0  0  0
110107  1  0  0  0  0
111110  1  0  0  0  0
112110  1  0  0  0  0
113115  1  0  0  0  0
113110  1  0  0  0  0
113114  1  0  0  0  0
116118  1  0  0  0  0
116113  1  0  0  0  0
117116  1  0  0  0  0
119116  1  0  0  0  0
119120  1  0  0  0  0
121119  1  0  0  0  0
122124  1  0  0  0  0
122119  1  0  0  0  0
123122  1  0  0  0  0
125127  1  0  0  0  0
125122  1  0  0  0  0
126125  1  0  0  0  0
128125  1  0  0  0  0
129128  1  0  0  0  0
130128  1  0  0  0  0
131128  1  0  0  0  0
M  END
