SOPC
 OpenBabel02161614153D

140139  0  0  1  0  0  0  0  0999 V2000
   37.6600   25.5500   61.9900 N   0  0  0  0  0  0  0  0  0  0  0  0
   37.9500   24.7600   60.7500 C   0  0  0  0  0  0  0  0  0  0  0  0
   36.9700   24.5200   60.3400 H   0  0  0  0  0  0  0  0  0  0  0  0
   38.3500   23.7800   61.0200 H   0  0  0  0  0  0  0  0  0  0  0  0
   37.2800   26.9500   61.6300 C   0  0  0  0  0  0  0  0  0  0  0  0
   38.0500   27.4200   61.0300 H   0  0  0  0  0  0  0  0  0  0  0  0
   36.4800   26.9900   60.9000 H   0  0  0  0  0  0  0  0  0  0  0  0
   36.9100   27.5100   62.4700 H   0  0  0  0  0  0  0  0  0  0  0  0
   36.7700   24.7200   62.8400 C   0  0  0  0  0  0  0  0  0  0  0  0
   35.8900   24.5500   62.2500 H   0  0  0  0  0  0  0  0  0  0  0  0
   36.4000   25.1800   63.7400 H   0  0  0  0  0  0  0  0  0  0  0  0
   37.0500   23.6800   63.0000 H   0  0  0  0  0  0  0  0  0  0  0  0
   38.8200   25.7300   62.8400 C   0  0  0  0  0  0  0  0  0  0  0  0
   39.2000   24.7700   63.1300 H   0  0  0  0  0  0  0  0  0  0  0  0
   39.5200   26.3000   62.2400 H   0  0  0  0  0  0  0  0  0  0  0  0
   38.4600   26.2900   63.6900 H   0  0  0  0  0  0  0  0  0  0  0  0
   38.7600   25.2900   59.5800 C   0  0  0  0  0  0  0  0  0  0  0  0
   38.2300   26.1600   59.1300 H   0  0  0  0  0  0  0  0  0  0  0  0
   38.8200   24.5100   58.7900 H   0  0  0  0  0  0  0  0  0  0  0  0
   41.0000   26.5500   59.3200 P   0  0  2  0  0  0  0  0  0  0  0  0
   41.8100   25.7300   58.3900 O   0  0  0  0  0  0  0  0  0  0  0  0
   41.7100   27.3400   60.3500 O   0  0  0  0  0  0  0  0  0  0  0  0
   40.0400   25.5700   60.0800 O   0  0  0  0  0  0  0  0  0  0  0  0
   39.9700   27.4300   58.4800 O   0  0  0  0  0  0  0  0  0  0  0  0
   39.4700   28.6400   59.0400 C   0  0  0  0  0  0  0  0  0  0  0  0
   39.2100   28.5300   60.1100 H   0  0  0  0  0  0  0  0  0  0  0  0
   40.2700   29.4200   58.9800 H   0  0  0  0  0  0  0  0  0  0  0  0
   38.1500   29.1200   58.3500 C   0  0  2  0  0  0  0  0  0  0  0  0
   37.8600   30.0900   58.8200 H   0  0  0  0  0  0  0  0  0  0  0  0
   37.0700   28.2100   58.4700 O   0  0  0  0  0  0  0  0  0  0  0  0
   35.9800   28.6900   57.8800 C   0  0  0  0  0  0  0  0  0  0  0  0
   35.6300   29.8400   57.8100 O   0  0  0  0  0  0  0  0  0  0  0  0
   35.2700   27.5000   57.3200 C   0  0  0  0  0  0  0  0  0  0  0  0
   35.3700   26.6900   58.0700 H   0  0  0  0  0  0  0  0  0  0  0  0
   34.2300   27.7400   57.1000 H   0  0  0  0  0  0  0  0  0  0  0  0
   38.3600   29.4100   56.8800 C   0  0  0  0  0  0  0  0  0  0  0  0
   38.9900   30.2600   57.1100 H   0  0  0  0  0  0  0  0  0  0  0  0
   37.4900   29.9300   56.3800 H   0  0  0  0  0  0  0  0  0  0  0  0
   38.8800   28.3700   56.0000 O   0  0  0  0  0  0  0  0  0  0  0  0
   40.0800   28.1300   55.4400 C   0  0  0  0  0  0  0  0  0  0  0  0
   41.1800   28.5500   55.6100 O   0  0  0  0  0  0  0  0  0  0  0  0
   39.9200   27.2200   54.3100 C   0  0  0  0  0  0  0  0  0  0  0  0
   38.9700   27.4300   53.7900 H   0  0  0  0  0  0  0  0  0  0  0  0
   40.7900   27.4900   53.6600 H   0  0  0  0  0  0  0  0  0  0  0  0
   35.9800   26.8100   56.2100 C   0  0  0  0  0  0  0  0  0  0  0  0
   36.9700   26.4500   56.5600 H   0  0  0  0  0  0  0  0  0  0  0  0
   36.2100   27.4800   55.3900 H   0  0  0  0  0  0  0  0  0  0  0  0
   35.0900   25.6700   55.7700 C   0  0  0  0  0  0  0  0  0  0  0  0
   34.7700   25.2600   56.7400 H   0  0  0  0  0  0  0  0  0  0  0  0
   34.0400   25.8600   55.4500 H   0  0  0  0  0  0  0  0  0  0  0  0
   35.9700   24.7300   54.9100 C   0  0  0  0  0  0  0  0  0  0  0  0
   35.5800   23.7200   54.6400 H   0  0  0  0  0  0  0  0  0  0  0  0
   36.9700   24.6100   55.3700 H   0  0  0  0  0  0  0  0  0  0  0  0
   36.1100   25.1700   53.5500 C   0  0  0  0  0  0  0  0  0  0  0  0
   36.3500   26.2500   53.6700 H   0  0  0  0  0  0  0  0  0  0  0  0
   36.9500   24.7000   53.0100 H   0  0  0  0  0  0  0  0  0  0  0  0
   34.8300   24.7900   52.7800 C   0  0  0  0  0  0  0  0  0  0  0  0
   33.9200   25.2100   53.2900 H   0  0  0  0  0  0  0  0  0  0  0  0
   34.6200   23.7400   52.5100 H   0  0  0  0  0  0  0  0  0  0  0  0
   35.0500   25.3900   51.4500 C   0  0  0  0  0  0  0  0  0  0  0  0
   35.3900   26.2400   52.0200 H   0  0  0  0  0  0  0  0  0  0  0  0
   34.1300   25.6600   50.9500 H   0  0  0  0  0  0  0  0  0  0  0  0
   36.1300   25.1900   50.4800 C   0  0  0  0  0  0  0  0  0  0  0  0
   37.1500   25.4100   50.8600 H   0  0  0  0  0  0  0  0  0  0  0  0
   35.9100   25.2300   49.1600 C   0  0  0  0  0  0  0  0  0  0  0  0
   36.7800   25.1600   48.5100 H   0  0  0  0  0  0  0  0  0  0  0  0
   34.5900   25.4800   48.4500 C   0  0  0  0  0  0  0  0  0  0  0  0
   33.7100   25.4900   49.1400 H   0  0  0  0  0  0  0  0  0  0  0  0
   34.4200   24.5600   47.8800 H   0  0  0  0  0  0  0  0  0  0  0  0
   34.3200   26.7700   47.5900 C   0  0  0  0  0  0  0  0  0  0  0  0
   33.3100   26.9100   47.4300 H   0  0  0  0  0  0  0  0  0  0  0  0
   34.3000   27.7800   47.9800 H   0  0  0  0  0  0  0  0  0  0  0  0
   35.0200   27.0300   46.3100 C   0  0  0  0  0  0  0  0  0  0  0  0
   36.0500   26.7600   46.5600 H   0  0  0  0  0  0  0  0  0  0  0  0
   35.1200   26.2700   45.5600 H   0  0  0  0  0  0  0  0  0  0  0  0
   34.5700   28.4800   45.8900 C   0  0  0  0  0  0  0  0  0  0  0  0
   35.1400   29.3200   46.3200 H   0  0  0  0  0  0  0  0  0  0  0  0
   33.5200   28.7000   46.1100 H   0  0  0  0  0  0  0  0  0  0  0  0
   34.7000   28.8600   44.4800 C   0  0  0  0  0  0  0  0  0  0  0  0
   35.6800   29.2000   44.5500 H   0  0  0  0  0  0  0  0  0  0  0  0
   34.5700   29.9000   44.2000 H   0  0  0  0  0  0  0  0  0  0  0  0
   34.3800   27.7400   43.5200 C   0  0  0  0  0  0  0  0  0  0  0  0
   34.7800   27.6900   42.5000 H   0  0  0  0  0  0  0  0  0  0  0  0
   34.8100   26.7700   43.7700 H   0  0  0  0  0  0  0  0  0  0  0  0
   32.9300   27.9400   43.2700 C   0  0  0  0  0  0  0  0  0  0  0  0
   32.4600   27.3600   44.0000 H   0  0  0  0  0  0  0  0  0  0  0  0
   32.6300   28.9500   43.5900 H   0  0  0  0  0  0  0  0  0  0  0  0
   32.4800   27.6700   41.8500 C   0  0  0  0  0  0  0  0  0  0  0  0
   32.3800   26.6900   41.6200 H   0  0  0  0  0  0  0  0  0  0  0  0
   31.4300   27.8200   41.6900 H   0  0  0  0  0  0  0  0  0  0  0  0
   33.2800   27.4400   41.1100 H   0  0  0  0  0  0  0  0  0  0  0  0
   40.0900   25.9200   55.0800 C   0  0  0  0  0  0  0  0  0  0  0  0
   39.2400   25.8100   55.7900 H   0  0  0  0  0  0  0  0  0  0  0  0
   41.0200   25.9500   55.7200 H   0  0  0  0  0  0  0  0  0  0  0  0
   40.2100   24.7100   54.1800 C   0  0  0  0  0  0  0  0  0  0  0  0
   40.5200   23.8400   54.8100 H   0  0  0  0  0  0  0  0  0  0  0  0
   39.2300   24.5000   53.7200 H   0  0  0  0  0  0  0  0  0  0  0  0
   41.2900   24.9000   53.1300 C   0  0  0  0  0  0  0  0  0  0  0  0
   42.2100   25.0500   53.7100 H   0  0  0  0  0  0  0  0  0  0  0  0
   41.1000   25.7500   52.4500 H   0  0  0  0  0  0  0  0  0  0  0  0
   41.4800   23.6700   52.2900 C   0  0  0  0  0  0  0  0  0  0  0  0
   42.3300   23.7700   51.5800 H   0  0  0  0  0  0  0  0  0  0  0  0
   41.8100   22.8700   52.9900 H   0  0  0  0  0  0  0  0  0  0  0  0
   40.2100   23.4200   51.4900 C   0  0  0  0  0  0  0  0  0  0  0  0
   39.7300   24.3300   51.0900 H   0  0  0  0  0  0  0  0  0  0  0  0
   39.4800   22.8500   52.1100 H   0  0  0  0  0  0  0  0  0  0  0  0
   40.5900   22.6100   50.3000 C   0  0  0  0  0  0  0  0  0  0  0  0
   41.5200   22.7100   49.7800 H   0  0  0  0  0  0  0  0  0  0  0  0
   40.8000   21.8100   50.9900 H   0  0  0  0  0  0  0  0  0  0  0  0
   39.5000   22.2200   49.3600 C   0  0  0  0  0  0  0  0  0  0  0  0
   39.9000   21.3100   48.8400 H   0  0  0  0  0  0  0  0  0  0  0  0
   38.6500   22.0100   50.0400 H   0  0  0  0  0  0  0  0  0  0  0  0
   39.2200   23.1200   48.1800 C   0  0  0  0  0  0  0  0  0  0  0  0
   38.9800   24.0900   48.6200 H   0  0  0  0  0  0  0  0  0  0  0  0
   40.1400   22.9900   47.5600 H   0  0  0  0  0  0  0  0  0  0  0  0
   38.0500   22.7200   47.3000 C   0  0  0  0  0  0  0  0  0  0  0  0
   37.2000   22.3800   47.9400 H   0  0  0  0  0  0  0  0  0  0  0  0
   38.6000   21.9700   46.6600 H   0  0  0  0  0  0  0  0  0  0  0  0
   37.4600   23.4400   46.1700 C   0  0  0  0  0  0  0  0  0  0  0  0
   36.7600   22.8400   45.5300 H   0  0  0  0  0  0  0  0  0  0  0  0
   36.8500   24.2400   46.6100 H   0  0  0  0  0  0  0  0  0  0  0  0
   38.6100   23.8300   45.3200 C   0  0  0  0  0  0  0  0  0  0  0  0
   39.3200   24.4100   45.9400 H   0  0  0  0  0  0  0  0  0  0  0  0
   39.2400   22.9900   44.9400 H   0  0  0  0  0  0  0  0  0  0  0  0
   38.0000   24.6300   44.2200 C   0  0  0  0  0  0  0  0  0  0  0  0
   37.3000   25.3000   44.7200 H   0  0  0  0  0  0  0  0  0  0  0  0
   37.3100   24.0800   43.5500 H   0  0  0  0  0  0  0  0  0  0  0  0
   39.1700   25.1800   43.4700 C   0  0  0  0  0  0  0  0  0  0  0  0
   40.0100   25.4700   44.1300 H   0  0  0  0  0  0  0  0  0  0  0  0
   39.5300   24.3000   43.0500 H   0  0  0  0  0  0  0  0  0  0  0  0
   38.9200   26.1700   42.3600 C   0  0  0  0  0  0  0  0  0  0  0  0
   39.7800   26.4100   41.8100 H   0  0  0  0  0  0  0  0  0  0  0  0
   39.0500   27.1300   42.8300 H   0  0  0  0  0  0  0  0  0  0  0  0
   37.7800   25.9200   41.3700 C   0  0  0  0  0  0  0  0  0  0  0  0
   36.8400   25.7100   41.9200 H   0  0  0  0  0  0  0  0  0  0  0  0
   37.9700   25.0100   40.8000 H   0  0  0  0  0  0  0  0  0  0  0  0
   37.5400   27.0600   40.3700 C   0  0  0  0  0  0  0  0  0  0  0  0
   37.4700   28.0700   40.7500 H   0  0  0  0  0  0  0  0  0  0  0  0
   36.5300   26.9400   39.9800 H   0  0  0  0  0  0  0  0  0  0  0  0
   38.2000   27.0400   39.5200 H   0  0  0  0  0  0  0  0  0  0  0  0
  1 13  1  0  0  0  0
  1  9  1  0  0  0  0
  2  4  1  0  0  0  0
  2  1  1  0  0  0  0
  3  2  1  0  0  0  0
  5  1  1  0  0  0  0
  5  8  1  0  0  0  0
  6  5  1  0  0  0  0
  7  5  1  0  0  0  0
  9 12  1  0  0  0  0
  9 11  1  0  0  0  0
 10  9  1  0  0  0  0
 13 14  1  0  0  0  0
 13 16  1  0  0  0  0
 15 13  1  0  0  0  0
 17 23  1  0  0  0  0
 17  2  1  0  0  0  0
 18 17  1  0  0  0  0
 19 17  1  0  0  0  0
 20 21  2  6  0  0  0
 20 23  1  0  0  0  0
 20 22  1  0  0  0  0
 24 25  1  0  0  0  0
 24 20  1  0  0  0  0
 25 26  1  0  0  0  0
 27 25  1  0  0  0  0
 28 30  1  0  0  0  0
 28 29  1  1  0  0  0
 28 25  1  0  0  0  0
 31 30  1  0  0  0  0
 32 31  2  0  0  0  0
 33 31  1  0  0  0  0
 33 34  1  0  0  0  0
 35 33  1  0  0  0  0
 36 37  1  0  0  0  0
 36 28  1  0  0  0  0
 38 36  1  0  0  0  0
 39 36  1  0  0  0  0
 40 41  2  0  0  0  0
 40 39  1  0  0  0  0
 42 92  1  0  0  0  0
 42 40  1  0  0  0  0
 43 42  1  0  0  0  0
 44 42  1  0  0  0  0
 45 46  1  0  0  0  0
 45 33  1  0  0  0  0
 47 45  1  0  0  0  0
 48 45  1  0  0  0  0
 48 49  1  0  0  0  0
 50 48  1  0  0  0  0
 51 53  1  0  0  0  0
 51 48  1  0  0  0  0
 52 51  1  0  0  0  0
 54 55  1  0  0  0  0
 54 51  1  0  0  0  0
 56 54  1  0  0  0  0
 57 58  1  0  0  0  0
 57 54  1  0  0  0  0
 59 57  1  0  0  0  0
 60 61  1  0  0  0  0
 60 57  1  0  0  0  0
 62 60  1  0  0  0  0
 63 64  1  0  0  0  0
 63 60  1  0  0  0  0
 65 63  1  0  0  0  0
 66 65  1  0  0  0  0
 67 68  1  0  0  0  0
 67 65  1  0  0  0  0
 69 67  1  0  0  0  0
 70 72  1  0  0  0  0
 70 67  1  0  0  0  0
 71 70  1  0  0  0  0
 73 74  1  0  0  0  0
 73 70  1  0  0  0  0
 75 73  1  0  0  0  0
 76 78  1  0  0  0  0
 76 73  1  0  0  0  0
 76 77  1  0  0  0  0
 79 80  1  0  0  0  0
 79 76  1  0  0  0  0
 81 79  1  0  0  0  0
 82 84  1  0  0  0  0
 82 79  1  0  0  0  0
 83 82  1  0  0  0  0
 85 82  1  0  0  0  0
 85 87  1  0  0  0  0
 85 86  1  0  0  0  0
 88 85  1  0  0  0  0
 89 88  1  0  0  0  0
 90 88  1  0  0  0  0
 91 88  1  0  0  0  0
 92 94  1  0  0  0  0
 92 93  1  0  0  0  0
 95 96  1  0  0  0  0
 95 92  1  0  0  0  0
 97 95  1  0  0  0  0
 98 99  1  0  0  0  0
 98 95  1  0  0  0  0
100 98  1  0  0  0  0
101103  1  0  0  0  0
101 98  1  0  0  0  0
102101  1  0  0  0  0
104106  1  0  0  0  0
104101  1  0  0  0  0
105104  1  0  0  0  0
107109  1  0  0  0  0
107104  1  0  0  0  0
108107  1  0  0  0  0
110112  1  0  0  0  0
110107  1  0  0  0  0
111110  1  0  0  0  0
113114  1  0  0  0  0
113110  1  0  0  0  0
115113  1  0  0  0  0
116117  1  0  0  0  0
116113  1  0  0  0  0
118116  1  0  0  0  0
119121  1  0  0  0  0
119116  1  0  0  0  0
120119  1  0  0  0  0
122123  1  0  0  0  0
122119  1  0  0  0  0
124122  1  0  0  0  0
125126  1  0  0  0  0
125122  1  0  0  0  0
127125  1  0  0  0  0
128129  1  0  0  0  0
128125  1  0  0  0  0
130128  1  0  0  0  0
131133  1  0  0  0  0
131128  1  0  0  0  0
132131  1  0  0  0  0
134135  1  0  0  0  0
134131  1  0  0  0  0
136134  1  0  0  0  0
137138  1  0  0  0  0
137134  1  0  0  0  0
139137  1  0  0  0  0
140137  1  0  0  0  0
M  END
