DSPA
 OpenBabel02161614153D

124123  0  0  1  0  0  0  0  0999 V2000
   23.5100   15.1100   60.4000 P   0  0  2  0  0  0  0  0  0  0  0  0
   22.6300   16.1600   59.8300 O   0  0  0  0  0  0  0  0  0  0  0  0
   23.3100   13.6600   60.1400 O   0  0  0  0  0  0  0  0  0  0  0  0
   23.2700   15.2000   61.9500 O   0  0  0  0  0  0  0  0  0  0  0  0
   22.4100   14.8500   62.1800 H   0  0  0  0  0  0  0  0  0  0  0  0
   25.0300   15.4600   60.3100 O   0  0  0  0  0  0  0  0  0  0  0  0
   25.5400   16.7400   60.7000 C   0  0  0  0  0  0  0  0  0  0  0  0
   26.1300   16.6000   61.6300 H   0  0  0  0  0  0  0  0  0  0  0  0
   24.7600   17.5100   60.9000 H   0  0  0  0  0  0  0  0  0  0  0  0
   26.4800   17.3200   59.6100 C   0  0  2  0  0  0  0  0  0  0  0  0
   26.9700   18.2000   60.0800 H   0  0  0  0  0  0  0  0  0  0  0  0
   25.7000   17.7500   58.4900 O   0  0  0  0  0  0  0  0  0  0  0  0
   26.4100   18.2700   57.5100 C   0  0  0  0  0  0  0  0  0  0  0  0
   27.5800   18.6400   57.5800 O   0  0  0  0  0  0  0  0  0  0  0  0
   25.5300   18.2900   56.2700 C   0  0  0  0  0  0  0  0  0  0  0  0
   24.4900   18.5400   56.5600 H   0  0  0  0  0  0  0  0  0  0  0  0
   25.5600   17.3000   55.7900 H   0  0  0  0  0  0  0  0  0  0  0  0
   27.5700   16.2800   59.1800 C   0  0  0  0  0  0  0  0  0  0  0  0
   27.8600   15.7300   60.1100 H   0  0  0  0  0  0  0  0  0  0  0  0
   28.4700   16.8100   58.8200 H   0  0  0  0  0  0  0  0  0  0  0  0
   27.1000   15.4000   58.1300 O   0  0  0  0  0  0  0  0  0  0  0  0
   27.8400   14.3200   57.9800 C   0  0  0  0  0  0  0  0  0  0  0  0
   28.8400   14.0600   58.6400 O   0  0  0  0  0  0  0  0  0  0  0  0
   27.2800   13.5100   56.8200 C   0  0  0  0  0  0  0  0  0  0  0  0
   26.1900   13.3900   56.9800 H   0  0  0  0  0  0  0  0  0  0  0  0
   27.7500   12.5000   56.8700 H   0  0  0  0  0  0  0  0  0  0  0  0
   26.0000   19.4000   55.3500 C   0  0  0  0  0  0  0  0  0  0  0  0
   27.1100   19.3900   55.2100 H   0  0  0  0  0  0  0  0  0  0  0  0
   25.7100   20.3100   55.9200 H   0  0  0  0  0  0  0  0  0  0  0  0
   25.2900   19.4800   54.0100 C   0  0  0  0  0  0  0  0  0  0  0  0
   25.4800   20.5000   53.5900 H   0  0  0  0  0  0  0  0  0  0  0  0
   24.2000   19.3500   54.1200 H   0  0  0  0  0  0  0  0  0  0  0  0
   25.8800   18.4800   53.0400 C   0  0  0  0  0  0  0  0  0  0  0  0
   25.2400   18.4500   52.1200 H   0  0  0  0  0  0  0  0  0  0  0  0
   25.9300   17.4500   53.4600 H   0  0  0  0  0  0  0  0  0  0  0  0
   27.2700   18.9500   52.6500 C   0  0  0  0  0  0  0  0  0  0  0  0
   28.0500   18.7400   53.4100 H   0  0  0  0  0  0  0  0  0  0  0  0
   27.2600   20.0500   52.4700 H   0  0  0  0  0  0  0  0  0  0  0  0
   27.6300   18.3700   51.3300 C   0  0  0  0  0  0  0  0  0  0  0  0
   26.7600   18.4100   50.6500 H   0  0  0  0  0  0  0  0  0  0  0  0
   27.8000   17.2700   51.4400 H   0  0  0  0  0  0  0  0  0  0  0  0
   28.7900   19.2200   50.7800 C   0  0  0  0  0  0  0  0  0  0  0  0
   29.5600   19.3000   51.5800 H   0  0  0  0  0  0  0  0  0  0  0  0
   28.4500   20.2300   50.5100 H   0  0  0  0  0  0  0  0  0  0  0  0
   29.3700   18.6100   49.5400 C   0  0  0  0  0  0  0  0  0  0  0  0
   30.0600   18.0300   50.1800 H   0  0  0  0  0  0  0  0  0  0  0  0
   30.2000   19.0600   48.9800 H   0  0  0  0  0  0  0  0  0  0  0  0
   28.2700   17.8400   48.7000 C   0  0  0  0  0  0  0  0  0  0  0  0
   27.5900   17.2300   49.3200 H   0  0  0  0  0  0  0  0  0  0  0  0
   28.5000   17.0200   48.0200 H   0  0  0  0  0  0  0  0  0  0  0  0
   27.5900   18.5900   47.6600 C   0  0  0  0  0  0  0  0  0  0  0  0
   28.3000   18.8800   46.8500 H   0  0  0  0  0  0  0  0  0  0  0  0
   27.3500   19.4800   48.2300 H   0  0  0  0  0  0  0  0  0  0  0  0
   26.4300   17.6900   47.1700 C   0  0  0  0  0  0  0  0  0  0  0  0
   25.4900   18.2600   47.1300 H   0  0  0  0  0  0  0  0  0  0  0  0
   26.2000   16.8700   47.8900 H   0  0  0  0  0  0  0  0  0  0  0  0
   26.7100   17.0800   45.8100 C   0  0  0  0  0  0  0  0  0  0  0  0
   27.6500   16.4800   45.8100 H   0  0  0  0  0  0  0  0  0  0  0  0
   26.8800   17.9200   45.0900 H   0  0  0  0  0  0  0  0  0  0  0  0
   25.5200   16.2400   45.3400 C   0  0  0  0  0  0  0  0  0  0  0  0
   24.5700   16.7900   45.5300 H   0  0  0  0  0  0  0  0  0  0  0  0
   25.5000   15.2500   45.8400 H   0  0  0  0  0  0  0  0  0  0  0  0
   25.5700   16.0400   43.8600 C   0  0  0  0  0  0  0  0  0  0  0  0
   26.4200   15.4100   43.7000 H   0  0  0  0  0  0  0  0  0  0  0  0
   25.7600   17.0400   43.4100 H   0  0  0  0  0  0  0  0  0  0  0  0
   24.3500   15.3700   43.2500 C   0  0  0  0  0  0  0  0  0  0  0  0
   24.0900   14.4300   43.7800 H   0  0  0  0  0  0  0  0  0  0  0  0
   23.5300   16.1100   43.3600 H   0  0  0  0  0  0  0  0  0  0  0  0
   24.5400   15.0500   41.7900 C   0  0  0  0  0  0  0  0  0  0  0  0
   25.2700   14.2600   41.5200 H   0  0  0  0  0  0  0  0  0  0  0  0
   23.5400   14.8000   41.3600 H   0  0  0  0  0  0  0  0  0  0  0  0
   24.9700   16.2900   41.1200 C   0  0  0  0  0  0  0  0  0  0  0  0
   25.0500   16.1300   40.0300 H   0  0  0  0  0  0  0  0  0  0  0  0
   25.8100   16.8500   41.4300 H   0  0  0  0  0  0  0  0  0  0  0  0
   24.2300   17.0200   41.4600 H   0  0  0  0  0  0  0  0  0  0  0  0
   27.5100   14.1500   55.4400 C   0  0  0  0  0  0  0  0  0  0  0  0
   28.5500   14.4900   55.3700 H   0  0  0  0  0  0  0  0  0  0  0  0
   26.9000   15.0400   55.2300 H   0  0  0  0  0  0  0  0  0  0  0  0
   27.4500   13.1400   54.3100 C   0  0  0  0  0  0  0  0  0  0  0  0
   26.6000   12.4400   54.3600 H   0  0  0  0  0  0  0  0  0  0  0  0
   28.3600   12.5700   54.5400 H   0  0  0  0  0  0  0  0  0  0  0  0
   27.5300   13.8100   52.9400 C   0  0  0  0  0  0  0  0  0  0  0  0
   28.5000   14.3600   52.9000 H   0  0  0  0  0  0  0  0  0  0  0  0
   26.7400   14.5800   52.8400 H   0  0  0  0  0  0  0  0  0  0  0  0
   27.4200   12.8200   51.7900 C   0  0  0  0  0  0  0  0  0  0  0  0
   26.5300   12.1700   51.8700 H   0  0  0  0  0  0  0  0  0  0  0  0
   28.3100   12.1900   51.9000 H   0  0  0  0  0  0  0  0  0  0  0  0
   27.5000   13.5200   50.4300 C   0  0  0  0  0  0  0  0  0  0  0  0
   28.5000   13.9700   50.4900 H   0  0  0  0  0  0  0  0  0  0  0  0
   26.7400   14.3300   50.3600 H   0  0  0  0  0  0  0  0  0  0  0  0
   27.4500   12.6300   49.1800 C   0  0  0  0  0  0  0  0  0  0  0  0
   26.5200   12.0200   49.1800 H   0  0  0  0  0  0  0  0  0  0  0  0
   28.3100   11.9400   49.2500 H   0  0  0  0  0  0  0  0  0  0  0  0
   27.5400   13.4300   47.8600 C   0  0  0  0  0  0  0  0  0  0  0  0
   28.4700   14.0300   47.8100 H   0  0  0  0  0  0  0  0  0  0  0  0
   26.7200   14.1500   47.7600 H   0  0  0  0  0  0  0  0  0  0  0  0
   27.6500   12.5800   46.6100 C   0  0  0  0  0  0  0  0  0  0  0  0
   26.7000   12.1100   46.3100 H   0  0  0  0  0  0  0  0  0  0  0  0
   28.4000   11.7800   46.7500 H   0  0  0  0  0  0  0  0  0  0  0  0
   28.2300   13.4200   45.5000 C   0  0  0  0  0  0  0  0  0  0  0  0
   29.3200   13.5800   45.7000 H   0  0  0  0  0  0  0  0  0  0  0  0
   27.7500   14.4000   45.4100 H   0  0  0  0  0  0  0  0  0  0  0  0
   28.1200   12.6500   44.2200 C   0  0  0  0  0  0  0  0  0  0  0  0
   27.1000   12.5900   43.7900 H   0  0  0  0  0  0  0  0  0  0  0  0
   28.3800   11.6400   44.5700 H   0  0  0  0  0  0  0  0  0  0  0  0
   29.0200   13.2900   43.2000 C   0  0  0  0  0  0  0  0  0  0  0  0
   29.0800   12.7400   42.2300 H   0  0  0  0  0  0  0  0  0  0  0  0
   30.0600   13.4300   43.6000 H   0  0  0  0  0  0  0  0  0  0  0  0
   28.3900   14.6000   42.9000 C   0  0  0  0  0  0  0  0  0  0  0  0
   28.5300   15.3100   43.7500 H   0  0  0  0  0  0  0  0  0  0  0  0
   27.3700   14.4000   42.5200 H   0  0  0  0  0  0  0  0  0  0  0  0
   28.9900   15.2000   41.7700 C   0  0  0  0  0  0  0  0  0  0  0  0
   28.7600   14.8100   40.7600 H   0  0  0  0  0  0  0  0  0  0  0  0
   29.9900   14.7900   42.0300 H   0  0  0  0  0  0  0  0  0  0  0  0
   29.0600   16.7000   41.7900 C   0  0  0  0  0  0  0  0  0  0  0  0
   29.7000   17.2600   42.5200 H   0  0  0  0  0  0  0  0  0  0  0  0
   29.4500   16.9100   40.7500 H   0  0  0  0  0  0  0  0  0  0  0  0
   27.9400   17.4400   41.5100 C   0  0  0  0  0  0  0  0  0  0  0  0
   27.3300   17.4900   42.4300 H   0  0  0  0  0  0  0  0  0  0  0  0
   27.4800   16.9300   40.6200 H   0  0  0  0  0  0  0  0  0  0  0  0
   28.4900   18.7500   41.1400 C   0  0  0  0  0  0  0  0  0  0  0  0
   29.1800   18.7300   40.2600 H   0  0  0  0  0  0  0  0  0  0  0  0
   28.9000   19.3900   41.9400 H   0  0  0  0  0  0  0  0  0  0  0  0
   27.5400   19.1100   40.8100 H   0  0  0  0  0  0  0  0  0  0  0  0
  1  2  2  6  0  0  0
  1  4  1  0  0  0  0
  3  1  1  0  0  0  0
  4  5  1  0  0  0  0
  6  1  1  0  0  0  0
  6  7  1  0  0  0  0
  7  9  1  0  0  0  0
  7  8  1  0  0  0  0
 10 11  1  1  0  0  0
 10  7  1  0  0  0  0
 12 10  1  0  0  0  0
 13 14  2  0  0  0  0
 13 12  1  0  0  0  0
 15 16  1  0  0  0  0
 15 13  1  0  0  0  0
 17 15  1  0  0  0  0
 18 10  1  0  0  0  0
 18 19  1  0  0  0  0
 20 18  1  0  0  0  0
 21 18  1  0  0  0  0
 22 21  1  0  0  0  0
 22 23  2  0  0  0  0
 24 26  1  0  0  0  0
 24 25  1  0  0  0  0
 24 22  1  0  0  0  0
 27 29  1  0  0  0  0
 27 15  1  0  0  0  0
 28 27  1  0  0  0  0
 30 32  1  0  0  0  0
 30 27  1  0  0  0  0
 31 30  1  0  0  0  0
 33 35  1  0  0  0  0
 33 30  1  0  0  0  0
 34 33  1  0  0  0  0
 36 33  1  0  0  0  0
 36 37  1  0  0  0  0
 38 36  1  0  0  0  0
 39 41  1  0  0  0  0
 39 36  1  0  0  0  0
 40 39  1  0  0  0  0
 42 39  1  0  0  0  0
 42 43  1  0  0  0  0
 44 42  1  0  0  0  0
 45 46  1  0  0  0  0
 45 42  1  0  0  0  0
 47 45  1  0  0  0  0
 48 49  1  0  0  0  0
 48 45  1  0  0  0  0
 50 48  1  0  0  0  0
 51 53  1  0  0  0  0
 51 48  1  0  0  0  0
 52 51  1  0  0  0  0
 54 51  1  0  0  0  0
 54 56  1  0  0  0  0
 55 54  1  0  0  0  0
 57 58  1  0  0  0  0
 57 54  1  0  0  0  0
 59 57  1  0  0  0  0
 60 61  1  0  0  0  0
 60 57  1  0  0  0  0
 60 62  1  0  0  0  0
 63 60  1  0  0  0  0
 64 63  1  0  0  0  0
 65 63  1  0  0  0  0
 66 68  1  0  0  0  0
 66 67  1  0  0  0  0
 66 63  1  0  0  0  0
 69 66  1  0  0  0  0
 70 69  1  0  0  0  0
 71 69  1  0  0  0  0
 72 74  1  0  0  0  0
 72 75  1  0  0  0  0
 72 69  1  0  0  0  0
 73 72  1  0  0  0  0
 76 24  1  0  0  0  0
 77 76  1  0  0  0  0
 78 76  1  0  0  0  0
 79 80  1  0  0  0  0
 79 81  1  0  0  0  0
 79 76  1  0  0  0  0
 82 79  1  0  0  0  0
 83 82  1  0  0  0  0
 84 82  1  0  0  0  0
 85 86  1  0  0  0  0
 85 87  1  0  0  0  0
 85 82  1  0  0  0  0
 88 89  1  0  0  0  0
 88 85  1  0  0  0  0
 90 88  1  0  0  0  0
 91 93  1  0  0  0  0
 91 88  1  0  0  0  0
 92 91  1  0  0  0  0
 94 91  1  0  0  0  0
 95 94  1  0  0  0  0
 96 94  1  0  0  0  0
 97 99  1  0  0  0  0
 97 94  1  0  0  0  0
 98 97  1  0  0  0  0
100101  1  0  0  0  0
100 97  1  0  0  0  0
102100  1  0  0  0  0
103105  1  0  0  0  0
103100  1  0  0  0  0
104103  1  0  0  0  0
106108  1  0  0  0  0
106103  1  0  0  0  0
107106  1  0  0  0  0
109106  1  0  0  0  0
109110  1  0  0  0  0
111109  1  0  0  0  0
112115  1  0  0  0  0
112114  1  0  0  0  0
112109  1  0  0  0  0
113112  1  0  0  0  0
115116  1  0  0  0  0
117115  1  0  0  0  0
118115  1  0  0  0  0
118119  1  0  0  0  0
120118  1  0  0  0  0
121118  1  0  0  0  0
121123  1  0  0  0  0
122121  1  0  0  0  0
124121  1  0  0  0  0
M  END
