PLPI25
 OpenBabel02161614153D

142142  0  0  1  0  0  0  0  0999 V2000
   -0.0600   27.1300   62.7800 C   0  0  2  0  0  0  0  0  0  0  0  0
   -1.0100   27.5600   62.5300 H   0  0  0  0  0  0  0  0  0  0  0  0
    0.5700   28.4000   62.7400 O   0  0  0  0  0  0  0  0  0  0  0  0
   -0.1100   28.9800   63.1300 H   0  0  0  0  0  0  0  0  0  0  0  0
   -0.3800   26.5900   64.1700 C   0  0  2  0  0  0  0  0  0  0  0  0
   -0.9900   25.6400   64.1000 H   0  0  0  0  0  0  0  0  0  0  0  0
   -1.1600   27.5600   64.8700 O   0  0  0  0  0  0  0  0  0  0  0  0
   -1.5300   27.1700   65.6700 H   0  0  0  0  0  0  0  0  0  0  0  0
    0.9000   26.2300   64.8200 C   0  0  1  0  0  0  0  0  0  0  0  0
    1.5600   27.1300   64.8000 H   0  0  0  0  0  0  0  0  0  0  0  0
    0.6300   25.8000   66.1600 O   0  0  0  0  0  0  0  0  0  0  0  0
    0.9900   26.7600   67.4500 P   0  0  0  0  0  0  0  0  0  0  0  0
    2.4800   26.5900   67.7400 O   0  0  0  0  0  0  0  0  0  0  0  0
    0.7000   28.2300   67.1400 O   0  0  0  0  0  0  0  0  0  0  0  0
    0.0900   26.2700   68.5600 O   0  0  0  0  0  0  0  0  0  0  0  0
    1.5500   25.1400   63.9800 C   0  0  2  0  0  0  0  0  0  0  0  0
    0.8200   24.2900   63.8800 H   0  0  0  0  0  0  0  0  0  0  0  0
    2.7800   24.7800   64.6100 O   0  0  0  0  0  0  0  0  0  0  0  0
    2.9600   23.3100   65.3200 P   0  0  2  0  0  0  0  0  0  0  0  0
    3.7700   23.6700   66.6600 O   0  0  0  0  0  0  0  0  0  0  0  0
    3.9200   22.9000   67.2100 H   0  0  0  0  0  0  0  0  0  0  0  0
    3.9100   22.6900   64.3000 O   0  0  0  0  0  0  0  0  0  0  0  0
    1.6600   22.6000   65.5800 O   0  0  0  0  0  0  0  0  0  0  0  0
    1.8800   25.6500   62.5700 C   0  0  1  0  0  0  0  0  0  0  0  0
    2.5500   26.5300   62.6200 H   0  0  0  0  0  0  0  0  0  0  0  0
    2.5700   24.6300   61.8700 O   0  0  0  0  0  0  0  0  0  0  0  0
    3.2400   24.3600   62.5100 H   0  0  0  0  0  0  0  0  0  0  0  0
    0.5800   26.0300   61.8900 C   0  0  2  0  0  0  0  0  0  0  0  0
   -0.0600   25.1200   61.9700 H   0  0  0  0  0  0  0  0  0  0  0  0
    0.1400   25.3000   59.3100 P   0  0  2  0  0  0  0  0  0  0  0  0
   -1.3200   25.4000   59.3600 O   0  0  0  0  0  0  0  0  0  0  0  0
    0.7600   23.9500   59.3700 O   0  0  0  0  0  0  0  0  0  0  0  0
    0.7500   26.3600   60.4900 O   0  0  0  0  0  0  0  0  0  0  0  0
    0.5300   26.1500   58.0600 O   0  0  0  0  0  0  0  0  0  0  0  0
    1.8800   26.1600   57.6900 C   0  0  0  0  0  0  0  0  0  0  0  0
    2.0400   25.3000   57.0000 H   0  0  0  0  0  0  0  0  0  0  0  0
    2.5800   26.1500   58.5600 H   0  0  0  0  0  0  0  0  0  0  0  0
    2.1200   27.4200   56.9100 C   0  0  2  0  0  0  0  0  0  0  0  0
    1.9600   28.2900   57.6100 H   0  0  0  0  0  0  0  0  0  0  0  0
    1.2400   27.4100   55.7800 O   0  0  0  0  0  0  0  0  0  0  0  0
    0.9300   28.6300   55.3900 C   0  0  0  0  0  0  0  0  0  0  0  0
    1.4500   29.6300   55.8400 O   0  0  0  0  0  0  0  0  0  0  0  0
   -0.2200   28.5300   54.3900 C   0  0  0  0  0  0  0  0  0  0  0  0
   -1.1900   28.6700   54.9000 H   0  0  0  0  0  0  0  0  0  0  0  0
   -0.2000   27.5200   53.9200 H   0  0  0  0  0  0  0  0  0  0  0  0
    3.5500   27.4300   56.4600 C   0  0  0  0  0  0  0  0  0  0  0  0
    3.6700   28.4600   56.1300 H   0  0  0  0  0  0  0  0  0  0  0  0
    4.1600   27.2500   57.3600 H   0  0  0  0  0  0  0  0  0  0  0  0
    3.8900   26.4500   55.4700 O   0  0  0  0  0  0  0  0  0  0  0  0
    3.8200   26.8400   54.2000 C   0  0  0  0  0  0  0  0  0  0  0  0
    3.7300   27.9700   53.7700 O   0  0  0  0  0  0  0  0  0  0  0  0
    3.8000   25.5900   53.3500 C   0  0  0  0  0  0  0  0  0  0  0  0
    3.1900   24.8400   53.8900 H   0  0  0  0  0  0  0  0  0  0  0  0
    4.8500   25.2200   53.2700 H   0  0  0  0  0  0  0  0  0  0  0  0
   -0.0600   29.5900   53.2900 C   0  0  0  0  0  0  0  0  0  0  0  0
    1.0300   29.4500   53.1400 H   0  0  0  0  0  0  0  0  0  0  0  0
   -0.3100   30.5900   53.7200 H   0  0  0  0  0  0  0  0  0  0  0  0
   -0.6800   29.1600   51.9600 C   0  0  0  0  0  0  0  0  0  0  0  0
   -1.7200   28.8900   52.1600 H   0  0  0  0  0  0  0  0  0  0  0  0
   -0.1100   28.2600   51.6300 H   0  0  0  0  0  0  0  0  0  0  0  0
   -0.9100   30.0800   50.7500 C   0  0  0  0  0  0  0  0  0  0  0  0
   -0.2900   30.9000   50.6500 H   0  0  0  0  0  0  0  0  0  0  0  0
   -1.7900   30.7100   50.9900 H   0  0  0  0  0  0  0  0  0  0  0  0
   -1.0600   29.3200   49.3900 C   0  0  0  0  0  0  0  0  0  0  0  0
   -1.7700   29.9600   48.8200 H   0  0  0  0  0  0  0  0  0  0  0  0
   -1.5000   28.3700   49.7200 H   0  0  0  0  0  0  0  0  0  0  0  0
    0.0800   28.8800   48.3700 C   0  0  0  0  0  0  0  0  0  0  0  0
    0.4000   29.6200   47.6500 H   0  0  0  0  0  0  0  0  0  0  0  0
   -0.3200   28.3600   47.4900 H   0  0  0  0  0  0  0  0  0  0  0  0
    1.4000   28.3600   48.9600 C   0  0  0  0  0  0  0  0  0  0  0  0
    1.0800   27.4100   49.3900 H   0  0  0  0  0  0  0  0  0  0  0  0
    1.8400   28.9500   49.7900 H   0  0  0  0  0  0  0  0  0  0  0  0
    2.4200   28.2600   47.8600 C   0  0  0  0  0  0  0  0  0  0  0  0
    2.8300   29.2300   47.5100 H   0  0  0  0  0  0  0  0  0  0  0  0
    2.9200   27.1200   47.3800 C   0  0  0  0  0  0  0  0  0  0  0  0
    3.7100   27.1500   46.6100 H   0  0  0  0  0  0  0  0  0  0  0  0
    2.5800   25.7400   47.8500 C   0  0  0  0  0  0  0  0  0  0  0  0
    2.3700   25.7700   48.9300 H   0  0  0  0  0  0  0  0  0  0  0  0
    3.5000   25.1200   47.7900 H   0  0  0  0  0  0  0  0  0  0  0  0
    1.4000   25.1200   47.1500 C   0  0  0  0  0  0  0  0  0  0  0  0
    0.4400   25.3000   47.6500 H   0  0  0  0  0  0  0  0  0  0  0  0
    1.4300   24.3600   46.0400 C   0  0  0  0  0  0  0  0  0  0  0  0
    0.5000   23.9100   45.6700 H   0  0  0  0  0  0  0  0  0  0  0  0
    2.6900   24.0100   45.2900 C   0  0  0  0  0  0  0  0  0  0  0  0
    2.7600   22.9000   45.2400 H   0  0  0  0  0  0  0  0  0  0  0  0
    3.5900   24.3500   45.8500 H   0  0  0  0  0  0  0  0  0  0  0  0
    2.8800   24.6200   43.8900 C   0  0  0  0  0  0  0  0  0  0  0  0
    2.1600   24.1900   43.1700 H   0  0  0  0  0  0  0  0  0  0  0  0
    3.9100   24.3600   43.5400 H   0  0  0  0  0  0  0  0  0  0  0  0
    2.6900   26.1500   43.8500 C   0  0  0  0  0  0  0  0  0  0  0  0
    3.3700   26.6400   44.5800 H   0  0  0  0  0  0  0  0  0  0  0  0
    1.6400   26.3800   44.1500 H   0  0  0  0  0  0  0  0  0  0  0  0
    2.9400   26.7300   42.4600 C   0  0  0  0  0  0  0  0  0  0  0  0
    2.5300   26.0500   41.6800 H   0  0  0  0  0  0  0  0  0  0  0  0
    4.0400   26.7700   42.3100 H   0  0  0  0  0  0  0  0  0  0  0  0
    2.3300   28.1200   42.2500 C   0  0  0  0  0  0  0  0  0  0  0  0
    2.8300   28.6000   41.3800 H   0  0  0  0  0  0  0  0  0  0  0  0
    1.2300   28.0700   42.0400 H   0  0  0  0  0  0  0  0  0  0  0  0
    2.4600   28.7400   43.1600 H   0  0  0  0  0  0  0  0  0  0  0  0
    3.2200   25.8200   51.9400 C   0  0  0  0  0  0  0  0  0  0  0  0
    3.5000   24.9600   51.2900 H   0  0  0  0  0  0  0  0  0  0  0  0
    3.6300   26.7300   51.4700 H   0  0  0  0  0  0  0  0  0  0  0  0
    1.7000   25.9600   51.9200 C   0  0  0  0  0  0  0  0  0  0  0  0
    1.4200   26.2200   50.8800 H   0  0  0  0  0  0  0  0  0  0  0  0
    1.3400   26.7900   52.5700 H   0  0  0  0  0  0  0  0  0  0  0  0
    0.9900   24.6600   52.3100 C   0  0  0  0  0  0  0  0  0  0  0  0
    0.6700   24.7200   53.3700 H   0  0  0  0  0  0  0  0  0  0  0  0
    1.6700   23.7900   52.2000 H   0  0  0  0  0  0  0  0  0  0  0  0
   -0.1800   24.3800   51.3800 C   0  0  0  0  0  0  0  0  0  0  0  0
   -0.4000   23.2900   51.3900 H   0  0  0  0  0  0  0  0  0  0  0  0
    0.1100   24.6600   50.3400 H   0  0  0  0  0  0  0  0  0  0  0  0
   -1.4300   25.1200   51.8100 C   0  0  0  0  0  0  0  0  0  0  0  0
   -1.2700   26.2200   51.7500 H   0  0  0  0  0  0  0  0  0  0  0  0
   -1.6800   24.8400   52.8700 H   0  0  0  0  0  0  0  0  0  0  0  0
   -2.5800   24.7500   50.9000 C   0  0  0  0  0  0  0  0  0  0  0  0
   -3.5100   25.2900   51.1700 H   0  0  0  0  0  0  0  0  0  0  0  0
   -2.8000   23.7000   51.0700 H   0  0  0  0  0  0  0  0  0  0  0  0
   -2.2100   24.8500   49.4100 C   0  0  0  0  0  0  0  0  0  0  0  0
   -1.6800   23.9200   49.1000 H   0  0  0  0  0  0  0  0  0  0  0  0
   -1.5900   25.7400   49.2200 H   0  0  0  0  0  0  0  0  0  0  0  0
   -3.4600   25.1600   48.6400 C   0  0  0  0  0  0  0  0  0  0  0  0
   -3.7700   26.1000   49.1100 H   0  0  0  0  0  0  0  0  0  0  0  0
   -4.3100   24.5700   48.9500 H   0  0  0  0  0  0  0  0  0  0  0  0
   -3.3700   25.3300   47.1300 C   0  0  0  0  0  0  0  0  0  0  0  0
   -4.4500   25.4000   46.9000 H   0  0  0  0  0  0  0  0  0  0  0  0
   -3.0000   24.4600   46.5600 H   0  0  0  0  0  0  0  0  0  0  0  0
   -2.6300   26.5800   46.6700 C   0  0  0  0  0  0  0  0  0  0  0  0
   -1.5800   26.4300   46.9700 H   0  0  0  0  0  0  0  0  0  0  0  0
   -3.1100   27.4100   47.2500 H   0  0  0  0  0  0  0  0  0  0  0  0
   -2.6800   26.8200   45.1500 C   0  0  0  0  0  0  0  0  0  0  0  0
   -2.9400   27.8800   44.9100 H   0  0  0  0  0  0  0  0  0  0  0  0
   -3.4200   26.0800   44.7800 H   0  0  0  0  0  0  0  0  0  0  0  0
   -1.4700   26.8800   44.2600 C   0  0  0  0  0  0  0  0  0  0  0  0
   -1.1400   25.8200   44.2400 H   0  0  0  0  0  0  0  0  0  0  0  0
   -0.8200   27.6400   44.7400 H   0  0  0  0  0  0  0  0  0  0  0  0
   -1.7500   27.3700   42.8300 C   0  0  0  0  0  0  0  0  0  0  0  0
   -2.5700   26.7600   42.6200 H   0  0  0  0  0  0  0  0  0  0  0  0
   -1.0800   26.9800   42.0500 H   0  0  0  0  0  0  0  0  0  0  0  0
   -2.2800   28.7700   42.5200 C   0  0  0  0  0  0  0  0  0  0  0  0
   -1.4500   29.3600   42.7100 H   0  0  0  0  0  0  0  0  0  0  0  0
   -2.4800   28.9000   41.4400 H   0  0  0  0  0  0  0  0  0  0  0  0
   -3.1600   29.1300   43.1100 H   0  0  0  0  0  0  0  0  0  0  0  0
  1  2  1  6  0  0  0
  1  5  1  0  0  0  0
  3  1  1  0  0  0  0
  3  4  1  0  0  0  0
  5  6  1  6  0  0  0
  5  9  1  0  0  0  0
  5  7  1  0  0  0  0
  7  8  1  0  0  0  0
  9 10  1  1  0  0  0
  9 11  1  0  0  0  0
 11 12  1  0  0  0  0
 12 13  1  0  0  0  0
 12 15  1  0  0  0  0
 14 12  2  0  0  0  0
 16 17  1  6  0  0  0
 16 18  1  0  0  0  0
 16  9  1  0  0  0  0
 18 19  1  0  0  0  0
 19 22  2  6  0  0  0
 19 23  1  0  0  0  0
 19 20  1  0  0  0  0
 20 21  1  0  0  0  0
 24 25  1  1  0  0  0
 24 16  1  0  0  0  0
 26 27  1  0  0  0  0
 26 24  1  0  0  0  0
 28 29  1  1  0  0  0
 28 24  1  0  0  0  0
 28  1  1  0  0  0  0
 30 34  1  6  0  0  0
 30 31  2  0  0  0  0
 30 32  1  0  0  0  0
 30 33  1  0  0  0  0
 33 28  1  0  0  0  0
 35 34  1  0  0  0  0
 35 37  1  0  0  0  0
 36 35  1  0  0  0  0
 38 39  1  1  0  0  0
 38 35  1  0  0  0  0
 40 38  1  0  0  0  0
 41 40  1  0  0  0  0
 41 42  2  0  0  0  0
 43 44  1  0  0  0  0
 43 41  1  0  0  0  0
 45 43  1  0  0  0  0
 46 38  1  0  0  0  0
 46 48  1  0  0  0  0
 47 46  1  0  0  0  0
 49 46  1  0  0  0  0
 50 49  1  0  0  0  0
 51 50  2  0  0  0  0
 52 53  1  0  0  0  0
 52 50  1  0  0  0  0
 54 52  1  0  0  0  0
 55 57  1  0  0  0  0
 55 43  1  0  0  0  0
 56 55  1  0  0  0  0
 58 59  1  0  0  0  0
 58 55  1  0  0  0  0
 60 58  1  0  0  0  0
 61 63  1  0  0  0  0
 61 58  1  0  0  0  0
 62 61  1  0  0  0  0
 64 66  1  0  0  0  0
 64 61  1  0  0  0  0
 65 64  1  0  0  0  0
 67 70  1  0  0  0  0
 67 64  1  0  0  0  0
 68 67  1  0  0  0  0
 69 67  1  0  0  0  0
 70 71  1  0  0  0  0
 70 72  1  0  0  0  0
 73 70  1  0  0  0  0
 74 73  1  0  0  0  0
 75 77  1  0  0  0  0
 75 73  2  0  0  0  0
 76 75  1  0  0  0  0
 77 78  1  0  0  0  0
 79 77  1  0  0  0  0
 80 81  1  0  0  0  0
 80 77  1  0  0  0  0
 82 80  2  0  0  0  0
 83 82  1  0  0  0  0
 84 86  1  0  0  0  0
 84 82  1  0  0  0  0
 85 84  1  0  0  0  0
 87 84  1  0  0  0  0
 88 87  1  0  0  0  0
 89 87  1  0  0  0  0
 90 87  1  0  0  0  0
 90 92  1  0  0  0  0
 90 91  1  0  0  0  0
 93 90  1  0  0  0  0
 94 93  1  0  0  0  0
 95 93  1  0  0  0  0
 96 93  1  0  0  0  0
 96 99  1  0  0  0  0
 97 96  1  0  0  0  0
 98 96  1  0  0  0  0
100 52  1  0  0  0  0
101100  1  0  0  0  0
102100  1  0  0  0  0
103100  1  0  0  0  0
103106  1  0  0  0  0
103105  1  0  0  0  0
104103  1  0  0  0  0
106107  1  0  0  0  0
108106  1  0  0  0  0
109110  1  0  0  0  0
109112  1  0  0  0  0
109106  1  0  0  0  0
111109  1  0  0  0  0
112114  1  0  0  0  0
113112  1  0  0  0  0
115117  1  0  0  0  0
115116  1  0  0  0  0
115112  1  0  0  0  0
118115  1  0  0  0  0
119118  1  0  0  0  0
120118  1  0  0  0  0
121123  1  0  0  0  0
121122  1  0  0  0  0
121118  1  0  0  0  0
124121  1  0  0  0  0
125124  1  0  0  0  0
126124  1  0  0  0  0
127128  1  0  0  0  0
127124  1  0  0  0  0
127129  1  0  0  0  0
130127  1  0  0  0  0
131130  1  0  0  0  0
132130  1  0  0  0  0
133135  1  0  0  0  0
133130  1  0  0  0  0
134133  1  0  0  0  0
136133  1  0  0  0  0
137136  1  0  0  0  0
138136  1  0  0  0  0
139140  1  0  0  0  0
139136  1  0  0  0  0
139142  1  0  0  0  0
141139  1  0  0  0  0
M  END
