DAPG
 OpenBabel02161614153D

131129  0  0  1  0  0  0  0  0999 V2000
    2.6600   75.6700   55.3700 C   0  0  0  0  0  0  0  0  0  0  0  0
    2.0400   75.4100   54.4900 H   0  0  0  0  0  0  0  0  0  0  0  0
    3.7200   75.3900   55.2100 H   0  0  0  0  0  0  0  0  0  0  0  0
    2.4500   77.0600   55.5800 O   0  0  0  0  0  0  0  0  0  0  0  0
    2.2800   77.4900   54.7400 H   0  0  0  0  0  0  0  0  0  0  0  0
    2.2700   74.8900   56.6300 C   0  0  1  0  0  0  0  0  0  0  0  0
    1.3400   75.3000   56.8900 H   0  0  0  0  0  0  0  0  0  0  0  0
    2.0000   73.5200   56.3600 O   0  0  0  0  0  0  0  0  0  0  0  0
    2.4000   73.3600   55.5100 H   0  0  0  0  0  0  0  0  0  0  0  0
    3.2400   75.1600   57.8000 C   0  0  0  0  0  0  0  0  0  0  0  0
    2.7800   74.9500   58.7900 H   0  0  0  0  0  0  0  0  0  0  0  0
    3.4500   76.2500   57.8500 H   0  0  0  0  0  0  0  0  0  0  0  0
    5.3600   73.9100   58.7000 P   0  0  2  0  0  0  0  0  0  0  0  0
    4.5400   73.1800   59.6900 O   0  0  0  0  0  0  0  0  0  0  0  0
    6.2800   74.9200   59.2800 O   0  0  0  0  0  0  0  0  0  0  0  0
    4.4600   74.4700   57.5400 O   0  0  0  0  0  0  0  0  0  0  0  0
    6.2200   72.7900   57.9900 O   0  0  0  0  0  0  0  0  0  0  0  0
    5.5100   71.6800   57.4100 C   0  0  0  0  0  0  0  0  0  0  0  0
    4.4000   71.8500   57.3200 H   0  0  0  0  0  0  0  0  0  0  0  0
    5.6800   70.7900   58.0400 H   0  0  0  0  0  0  0  0  0  0  0  0
    6.1500   71.3000   56.0700 C   0  0  2  0  0  0  0  0  0  0  0  0
    7.2100   71.0500   56.3000 H   0  0  0  0  0  0  0  0  0  0  0  0
    6.0100   72.4200   55.2000 O   0  0  0  0  0  0  0  0  0  0  0  0
    6.7900   72.3600   54.1800 C   0  0  0  0  0  0  0  0  0  0  0  0
    7.6800   71.5700   53.9600 O   0  0  0  0  0  0  0  0  0  0  0  0
    6.3700   73.4000   53.2600 C   0  0  0  0  0  0  0  0  0  0  0  0
    5.3000   73.3900   53.0000 H   0  0  0  0  0  0  0  0  0  0  0  0
    6.9200   73.1300   52.3100 H   0  0  0  0  0  0  0  0  0  0  0  0
    5.5800   70.0500   55.3900 C   0  0  0  0  0  0  0  0  0  0  0  0
    5.5500   69.1600   56.0400 H   0  0  0  0  0  0  0  0  0  0  0  0
    6.2000   69.7900   54.5000 H   0  0  0  0  0  0  0  0  0  0  0  0
    4.2800   70.4100   55.0600 O   0  0  0  0  0  0  0  0  0  0  0  0
    3.9100   70.1200   53.9000 C   0  0  0  0  0  0  0  0  0  0  0  0
    4.1900   69.1300   53.2300 O   0  0  0  0  0  0  0  0  0  0  0  0
    2.9200   71.2100   53.6300 C   0  0  0  0  0  0  0  0  0  0  0  0
    2.4700   71.8800   54.3700 H   0  0  0  0  0  0  0  0  0  0  0  0
    2.2100   70.7100   54.3600 H   0  0  0  0  0  0  0  0  0  0  0  0
    6.7900   74.7800   53.9100 C   0  0  0  0  0  0  0  0  0  0  0  0
    7.8900   74.7200   54.2000 H   0  0  0  0  0  0  0  0  0  0  0  0
    6.2500   74.9900   54.8500 H   0  0  0  0  0  0  0  0  0  0  0  0
    6.3200   75.9900   53.1300 C   0  0  0  0  0  0  0  0  0  0  0  0
    6.5900   76.9800   53.5700 H   0  0  0  0  0  0  0  0  0  0  0  0
    5.3000   75.9700   52.7500 H   0  0  0  0  0  0  0  0  0  0  0  0
    7.1500   75.4000   52.1400 C   0  0  0  0  0  0  0  0  0  0  0  0
    8.2100   75.7100   52.4300 H   0  0  0  0  0  0  0  0  0  0  0  0
    6.7100   75.1500   50.9100 C   0  0  0  0  0  0  0  0  0  0  0  0
    7.6100   75.2100   50.4100 H   0  0  0  0  0  0  0  0  0  0  0  0
    5.4000   75.3800   50.1100 C   0  0  0  0  0  0  0  0  0  0  0  0
    5.0000   74.5800   50.6800 H   0  0  0  0  0  0  0  0  0  0  0  0
    5.4200   75.1100   49.0300 H   0  0  0  0  0  0  0  0  0  0  0  0
    4.5100   76.6500   50.0100 C   0  0  0  0  0  0  0  0  0  0  0  0
    4.9200   77.6100   49.6500 H   0  0  0  0  0  0  0  0  0  0  0  0
    3.2700   76.7100   50.4500 C   0  0  0  0  0  0  0  0  0  0  0  0
    2.7100   77.6600   50.5500 H   0  0  0  0  0  0  0  0  0  0  0  0
    2.7400   75.4600   51.0600 C   0  0  0  0  0  0  0  0  0  0  0  0
    3.0400   75.4500   52.1300 H   0  0  0  0  0  0  0  0  0  0  0  0
    3.1900   74.5600   50.5800 H   0  0  0  0  0  0  0  0  0  0  0  0
    1.2700   75.3400   50.9500 C   0  0  0  0  0  0  0  0  0  0  0  0
    0.7200   75.4800   51.8900 H   0  0  0  0  0  0  0  0  0  0  0  0
    0.6100   75.2600   49.7900 C   0  0  0  0  0  0  0  0  0  0  0  0
   -0.4800   75.1400   49.8300 H   0  0  0  0  0  0  0  0  0  0  0  0
    1.2300   75.2800   48.4100 C   0  0  0  0  0  0  0  0  0  0  0  0
    2.3200   75.0500   48.4000 H   0  0  0  0  0  0  0  0  0  0  0  0
    1.1700   76.3300   48.0500 H   0  0  0  0  0  0  0  0  0  0  0  0
    0.4300   74.3600   47.5000 C   0  0  0  0  0  0  0  0  0  0  0  0
   -0.3400   73.7900   48.0400 H   0  0  0  0  0  0  0  0  0  0  0  0
    0.5100   74.2300   46.1600 C   0  0  0  0  0  0  0  0  0  0  0  0
   -0.2800   73.6300   45.6700 H   0  0  0  0  0  0  0  0  0  0  0  0
    1.4300   74.9900   45.2300 C   0  0  0  0  0  0  0  0  0  0  0  0
    1.8500   75.8500   45.8000 H   0  0  0  0  0  0  0  0  0  0  0  0
    0.8400   75.4200   44.3900 H   0  0  0  0  0  0  0  0  0  0  0  0
    2.6000   74.2700   44.5100 C   0  0  0  0  0  0  0  0  0  0  0  0
    2.1800   73.4400   43.9100 H   0  0  0  0  0  0  0  0  0  0  0  0
    3.3000   73.8600   45.2600 H   0  0  0  0  0  0  0  0  0  0  0  0
    3.3600   75.1800   43.5100 C   0  0  0  0  0  0  0  0  0  0  0  0
    3.7200   76.0800   44.0400 H   0  0  0  0  0  0  0  0  0  0  0  0
    2.6600   75.5400   42.7300 H   0  0  0  0  0  0  0  0  0  0  0  0
    4.4800   74.4700   42.7300 C   0  0  0  0  0  0  0  0  0  0  0  0
    5.0900   73.9200   43.4900 H   0  0  0  0  0  0  0  0  0  0  0  0
    5.1000   75.2100   42.1800 H   0  0  0  0  0  0  0  0  0  0  0  0
    3.9900   73.4200   41.7300 C   0  0  0  0  0  0  0  0  0  0  0  0
    3.1700   73.7800   41.0900 H   0  0  0  0  0  0  0  0  0  0  0  0
    3.5600   72.6000   42.3100 H   0  0  0  0  0  0  0  0  0  0  0  0
    4.8300   73.0500   41.1000 H   0  0  0  0  0  0  0  0  0  0  0  0
    2.7300   71.5800   52.0500 C   0  0  0  0  0  0  0  0  0  0  0  0
    3.6900   72.0200   51.8500 H   0  0  0  0  0  0  0  0  0  0  0  0
    1.8300   72.2200   51.8600 H   0  0  0  0  0  0  0  0  0  0  0  0
    2.5800   70.6200   50.7700 C   0  0  0  0  0  0  0  0  0  0  0  0
    1.5600   70.3800   51.0000 H   0  0  0  0  0  0  0  0  0  0  0  0
    3.1200   69.6200   50.8100 H   0  0  0  0  0  0  0  0  0  0  0  0
    2.0300   70.9100   49.4200 C   0  0  0  0  0  0  0  0  0  0  0  0
    0.9300   71.0300   49.3100 H   0  0  0  0  0  0  0  0  0  0  0  0
    2.8000   70.7300   48.3700 C   0  0  0  0  0  0  0  0  0  0  0  0
    2.3900   70.9800   47.3900 H   0  0  0  0  0  0  0  0  0  0  0  0
    4.2300   70.2800   48.4300 C   0  0  0  0  0  0  0  0  0  0  0  0
    4.4900   70.0900   47.3900 H   0  0  0  0  0  0  0  0  0  0  0  0
    4.4900   69.3400   48.9700 H   0  0  0  0  0  0  0  0  0  0  0  0
    5.1200   71.3400   48.9500 C   0  0  0  0  0  0  0  0  0  0  0  0
    5.3000   71.4100   50.0300 H   0  0  0  0  0  0  0  0  0  0  0  0
    5.6300   72.2800   48.1900 C   0  0  0  0  0  0  0  0  0  0  0  0
    6.3600   72.8000   48.7700 H   0  0  0  0  0  0  0  0  0  0  0  0
    5.5100   72.5900   46.7300 C   0  0  0  0  0  0  0  0  0  0  0  0
    6.1900   73.3100   46.3400 H   0  0  0  0  0  0  0  0  0  0  0  0
    4.4900   72.5600   46.4200 H   0  0  0  0  0  0  0  0  0  0  0  0
    5.9600   71.6900   45.8000 C   0  0  0  0  0  0  0  0  0  0  0  0
    7.0900   71.7600   45.8400 H   0  0  0  0  0  0  0  0  0  0  0  0
    5.3200   70.8300   45.0100 C   0  0  0  0  0  0  0  0  0  0  0  0
    5.7000   69.8100   45.0700 H   0  0  0  0  0  0  0  0  0  0  0  0
    4.0900   70.3600   44.6400 C   0  0  0  0  0  0  0  0  0  0  0  0
    4.3600   70.9400   43.7400 H   0  0  0  0  0  0  0  0  0  0  0  0
    3.4500   70.8400   45.3400 H   0  0  0  0  0  0  0  0  0  0  0  0
    3.8500   68.9700   44.1300 C   0  0  0  0  0  0  0  0  0  0  0  0
    4.4500   68.0600   44.3600 H   0  0  0  0  0  0  0  0  0  0  0  0
    3.1300   68.9400   43.0600 C   0  0  0  0  0  0  0  0  0  0  0  0
    2.9800   67.9200   42.7100 H   0  0  0  0  0  0  0  0  0  0  0  0
    2.4600   70.1200   42.3500 C   0  0  0  0  0  0  0  0  0  0  0  0
    2.6200   71.0900   42.8100 H   0  0  0  0  0  0  0  0  0  0  0  0
    1.4700   70.2100   42.7300 H   0  0  0  0  0  0  0  0  0  0  0  0
    1.9600   70.2700   40.8900 C   0  0  0  0  0  0  0  0  0  0  0  0
    1.3700   71.1100   40.6000 H   0  0  0  0  0  0  0  0  0  0  0  0
    1.4600   69.4500   40.4400 H   0  0  0  0  0  0  0  0  0  0  0  0
    2.7300   69.7400   39.9200 C   0  0  0  0  0  0  0  0  0  0  0  0
    3.1000   68.7000   40.2000 H   0  0  0  0  0  0  0  0  0  0  0  0
    3.1800   70.8100   40.2200 H   0  0  0  0  0  0  0  0  0  0  0  0
    2.8600   69.9700   38.5800 C   0  0  0  0  0  0  0  0  0  0  0  0
    2.7900   71.0600   38.4300 H   0  0  0  0  0  0  0  0  0  0  0  0
    2.3600   69.1700   38.0800 H   0  0  0  0  0  0  0  0  0  0  0  0
    3.6200   69.4700   37.5600 C   0  0  0  0  0  0  0  0  0  0  0  0
    4.0500   70.4500   37.3900 H   0  0  0  0  0  0  0  0  0  0  0  0
    4.0800   68.7000   36.9600 H   0  0  0  0  0  0  0  0  0  0  0  0
    4.1700   68.5700   37.9100 H   0  0  0  0  0  0  0  0  0  0  0  0
  1  4  1  0  0  0  0
  1  6  1  0  0  0  0
  2  1  1  0  0  0  0
  3  1  1  0  0  0  0
  5  4  1  0  0  0  0
  6  7  1  1  0  0  0
  6 10  1  0  0  0  0
  8  6  1  0  0  0  0
  9  8  1  0  0  0  0
 10 12  1  0  0  0  0
 10 11  1  0  0  0  0
 13 16  1  6  0  0  0
 13 15  2  0  0  0  0
 13 14  1  0  0  0  0
 16 10  1  0  0  0  0
 17 13  1  0  0  0  0
 18 17  1  0  0  0  0
 18 20  1  0  0  0  0
 19 18  1  0  0  0  0
 21 22  1  1  0  0  0
 21 18  1  0  0  0  0
 23 21  1  0  0  0  0
 24 23  1  0  0  0  0
 25 24  2  0  0  0  0
 26 38  1  0  0  0  0
 26 24  1  0  0  0  0
 27 26  1  0  0  0  0
 28 26  1  0  0  0  0
 29 30  1  0  0  0  0
 29 21  1  0  0  0  0
 31 29  1  0  0  0  0
 32 29  1  0  0  0  0
 33 32  1  0  0  0  0
 34 33  2  0  0  0  0
 35 33  1  0  0  0  0
 35 37  1  0  0  0  0
 35 36  1  0  0  0  0
 38 39  1  0  0  0  0
 38 40  1  0  0  0  0
 41 42  1  0  0  0  0
 41 38  1  0  0  0  0
 43 41  1  0  0  0  0
 44 45  1  0  0  0  0
 44 41  1  0  0  0  0
 46 44  1  0  0  0  0
 47 46  1  0  0  0  0
 48 49  1  0  0  0  0
 48 46  1  0  0  0  0
 50 48  1  0  0  0  0
 51 48  1  0  0  0  0
 51 53  2  0  0  0  0
 52 51  1  0  0  0  0
 53 54  1  0  0  0  0
 53 55  1  0  0  0  0
 55 56  1  0  0  0  0
 57 55  1  0  0  0  0
 58 55  1  0  0  0  0
 58 59  1  0  0  0  0
 60 61  1  0  0  0  0
 60 58  2  0  0  0  0
 62 60  1  0  0  0  0
 63 62  1  0  0  0  0
 64 62  1  0  0  0  0
 65 66  1  0  0  0  0
 65 62  1  0  0  0  0
 67 65  2  0  0  0  0
 68 67  1  0  0  0  0
 69 70  1  0  0  0  0
 69 67  1  0  0  0  0
 71 69  1  0  0  0  0
 72 69  1  0  0  0  0
 72 74  1  0  0  0  0
 73 72  1  0  0  0  0
 75 76  1  0  0  0  0
 75 72  1  0  0  0  0
 77 75  1  0  0  0  0
 78 79  1  0  0  0  0
 78 75  1  0  0  0  0
 80 78  1  0  0  0  0
 81 83  1  0  0  0  0
 81 78  1  0  0  0  0
 82 81  1  0  0  0  0
 84 81  1  0  0  0  0
 85 35  1  0  0  0  0
 86 85  1  0  0  0  0
 87 85  1  0  0  0  0
 88 90  1  0  0  0  0
 88 89  1  0  0  0  0
 88 85  1  0  0  0  0
 91 88  1  0  0  0  0
 92 91  1  0  0  0  0
 93 95  1  0  0  0  0
 93 91  1  0  0  0  0
 94 93  1  0  0  0  0
 95 98  1  0  0  0  0
 95 97  1  0  0  0  0
 96 95  1  0  0  0  0
 98 99  1  0  0  0  0
100101  1  0  0  0  0
100 98  1  0  0  0  0
102100  1  0  0  0  0
103102  1  0  0  0  0
104102  1  0  0  0  0
105106  1  0  0  0  0
105102  1  0  0  0  0
107108  1  0  0  0  0
107105  1  0  0  0  0
109107  1  0  0  0  0
109111  1  0  0  0  0
110109  1  0  0  0  0
112113  1  0  0  0  0
112109  1  0  0  0  0
114112  1  0  0  0  0
115114  1  0  0  0  0
116118  1  0  0  0  0
116117  1  0  0  0  0
116114  1  0  0  0  0
120119  1  0  0  0  0
121119  1  0  0  0  0
122123  1  0  0  0  0
122124  1  0  0  0  0
122119  1  0  0  0  0
125122  1  0  0  0  0
126125  1  0  0  0  0
127125  1  0  0  0  0
128131  1  0  0  0  0
128125  1  0  0  0  0
129128  1  0  0  0  0
130128  1  0  0  0  0
M  END
