DMPI25
 OpenBabel02161614153D

128124  0  0  1  0  0  0  0  0999 V2000
   18.1100   17.3200   60.6300 C   0  0  2  0  0  0  0  0  0  0  0  0
   18.8800   16.6300   60.2300 H   0  0  0  0  0  0  0  0  0  0  0  0
   16.8300   16.7500   60.3300 O   0  0  0  0  0  0  0  0  0  0  0  0
   16.8700   16.3400   59.4700 H   0  0  0  0  0  0  0  0  0  0  0  0
   18.2900   17.3700   62.1400 C   0  0  2  0  0  0  0  0  0  0  0  0
   19.3200   17.7300   62.3600 H   0  0  0  0  0  0  0  0  0  0  0  0
   18.1700   16.0200   62.6600 O   0  0  0  0  0  0  0  0  0  0  0  0
   19.0100   15.6200   62.8600 H   0  0  0  0  0  0  0  0  0  0  0  0
   17.3100   18.3800   62.7600 C   0  0  1  0  0  0  0  0  0  0  0  0
   16.2600   18.0800   62.5300 H   0  0  0  0  0  0  0  0  0  0  0  0
   17.5800   18.4500   64.1700 O   0  0  0  0  0  0  0  0  0  0  0  0
   16.4400   18.0100   65.3100 P   0  0  0  0  0  0  0  0  0  0  0  0
   15.1900   18.8000   65.0500 O   0  0  0  0  0  0  0  0  0  0  0  0
   16.2200   16.4900   65.1600 O   0  0  0  0  0  0  0  0  0  0  0  0
   16.9600   18.3100   66.7100 O   0  0  0  0  0  0  0  0  0  0  0  0
   17.5600   19.7800   62.1600 C   0  0  2  0  0  0  0  0  0  0  0  0
   18.5800   20.1200   62.4200 H   0  0  0  0  0  0  0  0  0  0  0  0
   16.5800   20.7200   62.6000 O   0  0  0  0  0  0  0  0  0  0  0  0
   16.8300   21.9800   63.6200 P   0  0  2  0  0  0  0  0  0  0  0  0
   18.1300   22.6200   62.9000 O   0  0  0  0  0  0  0  0  0  0  0  0
   18.9000   22.1000   63.0700 H   0  0  0  0  0  0  0  0  0  0  0  0
   17.2100   21.5900   65.0200 O   0  0  0  0  0  0  0  0  0  0  0  0
   15.6500   22.9000   63.3400 O   0  0  0  0  0  0  0  0  0  0  0  0
   17.4200   19.7200   60.6400 C   0  0  1  0  0  0  0  0  0  0  0  0
   16.4300   19.3600   60.3900 H   0  0  0  0  0  0  0  0  0  0  0  0
   17.6500   21.0300   60.1000 O   0  0  0  0  0  0  0  0  0  0  0  0
   18.0800   21.4800   60.8300 H   0  0  0  0  0  0  0  0  0  0  0  0
   18.3500   18.7000   60.0200 C   0  0  2  0  0  0  0  0  0  0  0  0
   19.4000   19.0300   60.2500 H   0  0  0  0  0  0  0  0  0  0  0  0
   19.3100   18.4000   57.5600 P   0  0  2  0  0  0  0  0  0  0  0  0
   20.2800   19.4800   57.7600 O   0  0  0  0  0  0  0  0  0  0  0  0
   19.7800   17.0100   57.8300 O   0  0  0  0  0  0  0  0  0  0  0  0
   18.6600   18.4800   56.1300 O   0  0  0  0  0  0  0  0  0  0  0  0
   18.0900   18.6600   58.5900 O   0  0  0  0  0  0  0  0  0  0  0  0
   17.3200   18.9300   55.9600 C   0  0  0  0  0  0  0  0  0  0  0  0
   17.1700   19.9500   56.3900 H   0  0  0  0  0  0  0  0  0  0  0  0
   16.6200   18.2100   56.4400 H   0  0  0  0  0  0  0  0  0  0  0  0
   16.9900   18.9700   54.4700 C   0  0  2  0  0  0  0  0  0  0  0  0
   15.9600   19.3800   54.3300 H   0  0  0  0  0  0  0  0  0  0  0  0
   17.1600   17.6600   53.9000 O   0  0  0  0  0  0  0  0  0  0  0  0
   16.0800   16.9200   53.8700 C   0  0  0  0  0  0  0  0  0  0  0  0
   14.9700   17.2400   54.2600 O   0  0  0  0  0  0  0  0  0  0  0  0
   16.4200   15.5800   53.2200 C   0  0  0  0  0  0  0  0  0  0  0  0
   15.4800   15.0100   53.1100 H   0  0  0  0  0  0  0  0  0  0  0  0
   17.1000   15.0300   53.9000 H   0  0  0  0  0  0  0  0  0  0  0  0
   17.9600   19.9300   53.7400 C   0  0  0  0  0  0  0  0  0  0  0  0
   19.0100   19.6300   53.9500 H   0  0  0  0  0  0  0  0  0  0  0  0
   17.7900   20.9500   54.1700 H   0  0  0  0  0  0  0  0  0  0  0  0
   17.6900   19.8500   52.3400 O   0  0  0  0  0  0  0  0  0  0  0  0
   18.2400   20.8200   51.6600 C   0  0  0  0  0  0  0  0  0  0  0  0
   18.8500   21.7700   52.1400 O   0  0  0  0  0  0  0  0  0  0  0  0
   17.9200   20.5700   50.1800 C   0  0  0  0  0  0  0  0  0  0  0  0
   16.8600   20.8400   49.9900 H   0  0  0  0  0  0  0  0  0  0  0  0
   18.1400   19.5300   49.9100 H   0  0  0  0  0  0  0  0  0  0  0  0
   17.2200   15.7200   51.9100 C   0  0  0  0  0  0  0  0  0  0  0  0
   17.3600   14.7000   51.4800 H   0  0  0  0  0  0  0  0  0  0  0  0
   18.2100   16.1700   52.1100 H   0  0  0  0  0  0  0  0  0  0  0  0
   16.6000   16.5500   50.8500 C   0  0  0  0  0  0  0  0  0  0  0  0
   17.2200   16.6500   49.9200 H   0  0  0  0  0  0  0  0  0  0  0  0
   16.3800   17.6200   51.2200 H   0  0  0  0  0  0  0  0  0  0  0  0
   15.6800   15.0700   50.3700 C   0  0  0  0  0  0  0  0  0  0  0  0
   14.7300   15.8400   51.1900 H   0  0  0  0  0  0  0  0  0  0  0  0
   16.0300   14.1800   50.4300 H   0  0  0  0  0  0  0  0  0  0  0  0
   14.8700   17.3600   49.2900 C   0  0  0  0  0  0  0  0  0  0  0  0
   14.5200   18.0500   50.0000 H   0  0  0  0  0  0  0  0  0  0  0  0
   13.7700   17.3600   49.5600 H   0  0  0  0  0  0  0  0  0  0  0  0
   16.0100   18.1200   47.8700 C   0  0  0  0  0  0  0  0  0  0  0  0
   15.6600   16.6900   47.4300 H   0  0  0  0  0  0  0  0  0  0  0  0
   16.6200   18.9600   47.7600 H   0  0  0  0  0  0  0  0  0  0  0  0
   14.5900   18.5800   46.9000 C   0  0  0  0  0  0  0  0  0  0  0  0
   14.2300   19.5700   47.8600 H   0  0  0  0  0  0  0  0  0  0  0  0
   13.3600   18.2300   47.0400 H   0  0  0  0  0  0  0  0  0  0  0  0
   14.9900   18.8200   46.1200 C   0  0  0  0  0  0  0  0  0  0  0  0
   15.7200   19.4100   46.6500 H   0  0  0  0  0  0  0  0  0  0  0  0
   14.4000   19.4100   45.4300 H   0  0  0  0  0  0  0  0  0  0  0  0
   15.3800   17.7200   45.2100 C   0  0  0  0  0  0  0  0  0  0  0  0
   15.4600   16.7200   45.6100 H   0  0  0  0  0  0  0  0  0  0  0  0
   16.4600   17.8300   45.0100 H   0  0  0  0  0  0  0  0  0  0  0  0
   14.3600   17.7400   44.0200 C   0  0  0  0  0  0  0  0  0  0  0  0
   13.3600   17.4700   44.3700 H   0  0  0  0  0  0  0  0  0  0  0  0
   14.7800   16.9700   43.3600 H   0  0  0  0  0  0  0  0  0  0  0  0
   13.9800   18.9900   43.1500 C   0  0  0  0  0  0  0  0  0  0  0  0
   14.7000   19.6600   43.4000 H   0  0  0  0  0  0  0  0  0  0  0  0
   13.5800   19.9800   43.3300 H   0  0  0  0  0  0  0  0  0  0  0  0
   13.6800   18.5600   41.7100 C   0  0  0  0  0  0  0  0  0  0  0  0
   12.6900   18.1500   41.8800 H   0  0  0  0  0  0  0  0  0  0  0  0
   14.3200   17.7000   41.6700 H   0  0  0  0  0  0  0  0  0  0  0  0
   13.9800   19.2400   40.3200 C   0  0  0  0  0  0  0  0  0  0  0  0
   13.7000   18.7300   39.3600 H   0  0  0  0  0  0  0  0  0  0  0  0
   13.5900   20.2500   40.1700 H   0  0  0  0  0  0  0  0  0  0  0  0
   14.7700   19.9500   40.3000 H   0  0  0  0  0  0  0  0  0  0  0  0
   18.6900   21.4400   49.2400 C   0  0  0  0  0  0  0  0  0  0  0  0
   18.3400   22.4000   49.7100 H   0  0  0  0  0  0  0  0  0  0  0  0
   18.2800   21.5600   48.2300 H   0  0  0  0  0  0  0  0  0  0  0  0
   20.2100   21.0900   49.1800 C   0  0  0  0  0  0  0  0  0  0  0  0
   20.7700   21.4500   50.0700 H   0  0  0  0  0  0  0  0  0  0  0  0
   20.7700   21.6200   48.4100 H   0  0  0  0  0  0  0  0  0  0  0  0
   20.6100   19.8200   48.5000 C   0  0  0  0  0  0  0  0  0  0  0  0
   20.3700   19.0500   49.2400 H   0  0  0  0  0  0  0  0  0  0  0  0
   21.7200   19.9300   48.3600 H   0  0  0  0  0  0  0  0  0  0  0  0
   19.9300   19.6300   47.1300 C   0  0  0  0  0  0  0  0  0  0  0  0
   20.3700   20.3700   46.4200 H   0  0  0  0  0  0  0  0  0  0  0  0
   18.8900   19.7700   47.1800 H   0  0  0  0  0  0  0  0  0  0  0  0
   20.1100   18.2500   46.4900 C   0  0  0  0  0  0  0  0  0  0  0  0
   21.1700   18.3300   46.3800 H   0  0  0  0  0  0  0  0  0  0  0  0
   19.7800   18.2000   45.4300 H   0  0  0  0  0  0  0  0  0  0  0  0
   19.6200   17.0400   47.3000 C   0  0  0  0  0  0  0  0  0  0  0  0
   18.5100   17.1000   47.2400 H   0  0  0  0  0  0  0  0  0  0  0  0
   19.9500   17.1100   48.3600 H   0  0  0  0  0  0  0  0  0  0  0  0
   20.0400   15.6400   46.8100 C   0  0  0  0  0  0  0  0  0  0  0  0
   19.4500   14.8400   47.3200 H   0  0  0  0  0  0  0  0  0  0  0  0
   21.0900   15.4200   47.0900 H   0  0  0  0  0  0  0  0  0  0  0  0
   19.9700   15.4500   45.3000 C   0  0  0  0  0  0  0  0  0  0  0  0
   20.4500   14.4700   45.1600 H   0  0  0  0  0  0  0  0  0  0  0  0
   20.6200   16.1500   44.7500 H   0  0  0  0  0  0  0  0  0  0  0  0
   18.5300   15.4900   44.7900 C   0  0  0  0  0  0  0  0  0  0  0  0
   18.1100   16.5100   44.9300 H   0  0  0  0  0  0  0  0  0  0  0  0
   17.9100   14.7700   45.3700 H   0  0  0  0  0  0  0  0  0  0  0  0
   18.3200   15.3000   43.3000 C   0  0  0  0  0  0  0  0  0  0  0  0
   19.0600   14.5500   42.9400 H   0  0  0  0  0  0  0  0  0  0  0  0
   18.4700   16.1600   42.6300 H   0  0  0  0  0  0  0  0  0  0  0  0
   16.8800   14.9600   43.0300 C   0  0  0  0  0  0  0  0  0  0  0  0
   16.0900   15.6300   43.3500 H   0  0  0  0  0  0  0  0  0  0  0  0
   16.6700   14.1300   43.7600 H   0  0  0  0  0  0  0  0  0  0  0  0
   16.7700   14.6700   41.5300 C   0  0  0  0  0  0  0  0  0  0  0  0
   15.8500   14.1400   41.2200 H   0  0  0  0  0  0  0  0  0  0  0  0
   17.0600   15.2500   40.6600 H   0  0  0  0  0  0  0  0  0  0  0  0
   17.6800   14.0600   41.4500 H   0  0  0  0  0  0  0  0  0  0  0  0
  1  2  1  6  0  0  0
  1  5  1  0  0  0  0
  3  1  1  0  0  0  0
  4  3  1  0  0  0  0
  5  6  1  1  0  0  0
  5  7  1  0  0  0  0
  5  9  1  0  0  0  0
  7  8  1  0  0  0  0
  9 10  1  6  0  0  0
  9 11  1  0  0  0  0
 11 12  1  0  0  0  0
 12 15  1  0  0  0  0
 13 12  2  0  0  0  0
 14 12  1  0  0  0  0
 16 17  1  1  0  0  0
 16 18  1  0  0  0  0
 16  9  1  0  0  0  0
 19 18  1  6  0  0  0
 19 22  1  0  0  0  0
 20 21  1  0  0  0  0
 20 19  1  0  0  0  0
 23 19  2  0  0  0  0
 24 25  1  6  0  0  0
 24 16  1  0  0  0  0
 26 24  1  0  0  0  0
 26 27  1  0  0  0  0
 28 29  1  1  0  0  0
 28  1  1  0  0  0  0
 28 24  1  0  0  0  0
 30 33  1  6  0  0  0
 30 31  2  0  0  0  0
 30 32  1  0  0  0  0
 30 34  1  0  0  0  0
 34 28  1  0  0  0  0
 35 33  1  0  0  0  0
 35 36  1  0  0  0  0
 35 37  1  0  0  0  0
 38 39  1  6  0  0  0
 38 35  1  0  0  0  0
 40 38  1  0  0  0  0
 41 40  1  0  0  0  0
 41 42  2  0  0  0  0
 43 41  1  0  0  0  0
 43 45  1  0  0  0  0
 44 43  1  0  0  0  0
 46 47  1  0  0  0  0
 46 48  1  0  0  0  0
 46 38  1  0  0  0  0
 49 46  1  0  0  0  0
 50 51  2  0  0  0  0
 50 49  1  0  0  0  0
 52 50  1  0  0  0  0
 53 52  1  0  0  0  0
 54 52  1  0  0  0  0
 55 57  1  0  0  0  0
 55 43  1  0  0  0  0
 56 55  1  0  0  0  0
 58 60  1  0  0  0  0
 58 55  1  0  0  0  0
 59 58  1  0  0  0  0
 61 63  1  0  0  0  0
 61 58  1  0  0  0  0
 61 62  1  0  0  0  0
 64 66  1  0  0  0  0
 64 65  1  0  0  0  0
 69 67  1  0  0  0  0
 70 72  1  0  0  0  0
 70 71  1  0  0  0  0
 73 74  1  0  0  0  0
 73 70  1  0  0  0  0
 75 73  1  0  0  0  0
 76 77  1  0  0  0  0
 76 73  1  0  0  0  0
 78 76  1  0  0  0  0
 79 80  1  0  0  0  0
 79 76  1  0  0  0  0
 81 79  1  0  0  0  0
 82 84  1  0  0  0  0
 82 83  1  0  0  0  0
 82 79  1  0  0  0  0
 85 86  1  0  0  0  0
 85 82  1  0  0  0  0
 87 85  1  0  0  0  0
 88 85  1  0  0  0  0
 89 88  1  0  0  0  0
 90 88  1  0  0  0  0
 91 88  1  0  0  0  0
 92 93  1  0  0  0  0
 92 52  1  0  0  0  0
 94 92  1  0  0  0  0
 95 92  1  0  0  0  0
 95 96  1  0  0  0  0
 97 95  1  0  0  0  0
 98 95  1  0  0  0  0
 98 99  1  0  0  0  0
100 98  1  0  0  0  0
101103  1  0  0  0  0
101 98  1  0  0  0  0
102101  1  0  0  0  0
104101  1  0  0  0  0
104107  1  0  0  0  0
105104  1  0  0  0  0
106104  1  0  0  0  0
107109  1  0  0  0  0
108107  1  0  0  0  0
110112  1  0  0  0  0
110107  1  0  0  0  0
110111  1  0  0  0  0
113110  1  0  0  0  0
114113  1  0  0  0  0
115113  1  0  0  0  0
116117  1  0  0  0  0
116113  1  0  0  0  0
116118  1  0  0  0  0
119116  1  0  0  0  0
120119  1  0  0  0  0
121119  1  0  0  0  0
122119  1  0  0  0  0
122123  1  0  0  0  0
122124  1  0  0  0  0
125122  1  0  0  0  0
126125  1  0  0  0  0
127125  1  0  0  0  0
128125  1  0  0  0  0
M  END
