LNACL2
 OpenBabel02161614153D

238237  0  0  1  0  0  0  0  0999 V2000
   49.9500   38.4800   60.6600 C   0  0  0  0  0  0  0  0  0  0  0  0
   50.0800   38.5500   59.5500 H   0  0  0  0  0  0  0  0  0  0  0  0
   48.9400   38.0500   60.8600 H   0  0  0  0  0  0  0  0  0  0  0  0
   49.2400   40.8800   60.4500 P   0  0  2  0  0  0  0  0  0  0  0  0
   49.4200   42.2000   61.1100 O   0  0  0  0  0  0  0  0  0  0  0  0
   47.8800   40.3200   60.3300 O   0  0  0  0  0  0  0  0  0  0  0  0
   50.0800   39.7900   61.2700 O   0  0  0  0  0  0  0  0  0  0  0  0
   50.0000   40.8900   59.0800 O   0  0  0  0  0  0  0  0  0  0  0  0
   49.5900   41.7300   58.0000 C   0  0  0  0  0  0  0  0  0  0  0  0
   48.5300   42.0600   58.0500 H   0  0  0  0  0  0  0  0  0  0  0  0
   50.2600   42.6300   57.9400 H   0  0  0  0  0  0  0  0  0  0  0  0
   51.0100   37.4200   61.0700 C   0  0  1  0  0  0  0  0  0  0  0  0
   52.0200   37.7400   60.7300 H   0  0  0  0  0  0  0  0  0  0  0  0
   51.0200   37.1800   62.4800 O   0  0  0  0  0  0  0  0  0  0  0  0
   51.4600   36.3300   62.5800 H   0  0  0  0  0  0  0  0  0  0  0  0
   50.7000   36.1100   60.3000 C   0  0  0  0  0  0  0  0  0  0  0  0
   49.7900   35.6300   60.7000 H   0  0  0  0  0  0  0  0  0  0  0  0
   51.5900   35.4400   60.4000 H   0  0  0  0  0  0  0  0  0  0  0  0
   50.7100   35.6600   57.6300 P   0  0  1  0  0  0  0  0  0  0  0  0
   49.8200   34.4800   57.6300 O   0  0  0  0  0  0  0  0  0  0  0  0
   50.6200   36.6200   56.5200 O   0  0  0  0  0  0  0  0  0  0  0  0
   50.4300   36.4400   58.9500 O   0  0  0  0  0  0  0  0  0  0  0  0
   52.2000   35.2100   57.8800 O   0  0  0  0  0  0  0  0  0  0  0  0
   53.1200   36.3000   58.0600 C   0  0  0  0  0  0  0  0  0  0  0  0
   54.0500   35.8600   58.3900 H   0  0  0  0  0  0  0  0  0  0  0  0
   52.7800   36.9500   58.9000 H   0  0  0  0  0  0  0  0  0  0  0  0
   53.4800   37.0900   56.7600 C   0  0  2  0  0  0  0  0  0  0  0  0
   52.6300   37.7800   56.5500 H   0  0  0  0  0  0  0  0  0  0  0  0
   53.6000   36.1000   55.7100 O   0  0  0  0  0  0  0  0  0  0  0  0
   53.4100   36.4200   54.4600 C   0  0  0  0  0  0  0  0  0  0  0  0
   53.2600   37.5200   53.9600 O   0  0  0  0  0  0  0  0  0  0  0  0
   53.5000   35.1500   53.6100 C   0  0  0  0  0  0  0  0  0  0  0  0
   52.5800   34.5500   53.7100 H   0  0  0  0  0  0  0  0  0  0  0  0
   54.3400   34.5000   53.9400 H   0  0  0  0  0  0  0  0  0  0  0  0
   54.7600   37.9900   56.8500 C   0  0  0  0  0  0  0  0  0  0  0  0
   55.6200   37.2900   56.7800 H   0  0  0  0  0  0  0  0  0  0  0  0
   54.8600   38.5400   57.8200 H   0  0  0  0  0  0  0  0  0  0  0  0
   54.7500   38.8800   55.7200 O   0  0  0  0  0  0  0  0  0  0  0  0
   54.9800   40.1800   55.8600 C   0  0  0  0  0  0  0  0  0  0  0  0
   55.3900   40.7300   56.8600 O   0  0  0  0  0  0  0  0  0  0  0  0
   54.6600   40.8900   54.5100 C   0  0  0  0  0  0  0  0  0  0  0  0
   54.2000   41.8800   54.6300 H   0  0  0  0  0  0  0  0  0  0  0  0
   54.0200   40.2100   53.9100 H   0  0  0  0  0  0  0  0  0  0  0  0
   49.7100   40.9100   56.7100 C   0  0  2  0  0  0  0  0  0  0  0  0
   49.2600   41.4800   55.8600 H   0  0  0  0  0  0  0  0  0  0  0  0
   49.0800   39.6200   56.8800 O   0  0  0  0  0  0  0  0  0  0  0  0
   47.8500   39.5100   56.4700 C   0  0  0  0  0  0  0  0  0  0  0  0
   47.0900   40.4100   56.1700 O   0  0  0  0  0  0  0  0  0  0  0  0
   47.5800   38.0400   56.1700 C   0  0  0  0  0  0  0  0  0  0  0  0
   47.2700   37.5200   57.1000 H   0  0  0  0  0  0  0  0  0  0  0  0
   48.4800   37.5700   55.7200 H   0  0  0  0  0  0  0  0  0  0  0  0
   51.2100   40.6700   56.4100 C   0  0  0  0  0  0  0  0  0  0  0  0
   51.7700   41.6300   56.3200 H   0  0  0  0  0  0  0  0  0  0  0  0
   51.6500   40.1400   57.2800 H   0  0  0  0  0  0  0  0  0  0  0  0
   51.3500   39.8700   55.2400 O   0  0  0  0  0  0  0  0  0  0  0  0
   51.3100   40.5300   54.0900 C   0  0  0  0  0  0  0  0  0  0  0  0
   51.3000   41.7400   53.9800 O   0  0  0  0  0  0  0  0  0  0  0  0
   51.2800   39.5100   52.9500 C   0  0  0  0  0  0  0  0  0  0  0  0
   50.9300   38.5500   53.4000 H   0  0  0  0  0  0  0  0  0  0  0  0
   52.3200   39.3400   52.5900 H   0  0  0  0  0  0  0  0  0  0  0  0
   53.8400   35.5800   52.1900 C   0  0  0  0  0  0  0  0  0  0  0  0
   54.7500   36.2100   52.1900 H   0  0  0  0  0  0  0  0  0  0  0  0
   53.0700   36.1800   51.6600 H   0  0  0  0  0  0  0  0  0  0  0  0
   54.1500   34.3700   51.3800 C   0  0  0  0  0  0  0  0  0  0  0  0
   53.2400   33.7600   51.2400 H   0  0  0  0  0  0  0  0  0  0  0  0
   54.9400   33.7200   51.8600 H   0  0  0  0  0  0  0  0  0  0  0  0
   54.5200   34.8500   50.0200 C   0  0  0  0  0  0  0  0  0  0  0  0
   55.5900   35.1900   50.2300 H   0  0  0  0  0  0  0  0  0  0  0  0
   54.1800   35.7800   49.5700 H   0  0  0  0  0  0  0  0  0  0  0  0
   54.0500   33.7000   49.0200 C   0  0  0  0  0  0  0  0  0  0  0  0
   53.1400   33.1500   49.0900 H   0  0  0  0  0  0  0  0  0  0  0  0
   54.5900   32.8900   49.4200 H   0  0  0  0  0  0  0  0  0  0  0  0
   54.2600   33.8600   47.4900 C   0  0  0  0  0  0  0  0  0  0  0  0
   54.9900   34.3400   48.0100 H   0  0  0  0  0  0  0  0  0  0  0  0
   53.9000   34.7800   47.0500 H   0  0  0  0  0  0  0  0  0  0  0  0
   54.7200   32.6800   46.4600 C   0  0  0  0  0  0  0  0  0  0  0  0
   53.7700   32.1900   46.3300 H   0  0  0  0  0  0  0  0  0  0  0  0
   55.4300   32.0000   46.9100 H   0  0  0  0  0  0  0  0  0  0  0  0
   55.5400   32.6000   45.1500 C   0  0  0  0  0  0  0  0  0  0  0  0
   56.5500   33.1200   45.1800 H   0  0  0  0  0  0  0  0  0  0  0  0
   54.9200   32.9200   44.0300 C   0  0  0  0  0  0  0  0  0  0  0  0
   55.6000   33.2300   43.2300 H   0  0  0  0  0  0  0  0  0  0  0  0
   53.4700   33.4000   43.9400 C   0  0  0  0  0  0  0  0  0  0  0  0
   53.1700   34.5000   43.9300 H   0  0  0  0  0  0  0  0  0  0  0  0
   52.9000   33.0500   44.8100 H   0  0  0  0  0  0  0  0  0  0  0  0
   53.0500   32.7800   42.6900 C   0  0  0  0  0  0  0  0  0  0  0  0
   52.2400   32.1000   42.9100 H   0  0  0  0  0  0  0  0  0  0  0  0
   53.4900   32.9800   41.4500 C   0  0  0  0  0  0  0  0  0  0  0  0
   53.1500   32.2900   40.6500 H   0  0  0  0  0  0  0  0  0  0  0  0
   54.5800   33.9600   41.1200 C   0  0  0  0  0  0  0  0  0  0  0  0
   55.6200   33.6900   41.4300 H   0  0  0  0  0  0  0  0  0  0  0  0
   54.3300   35.0500   41.1500 H   0  0  0  0  0  0  0  0  0  0  0  0
   54.6300   33.8400   39.8300 C   0  0  0  0  0  0  0  0  0  0  0  0
   55.4500   33.1600   39.6400 H   0  0  0  0  0  0  0  0  0  0  0  0
   53.9700   34.5200   38.9600 C   0  0  0  0  0  0  0  0  0  0  0  0
   53.6300   33.8400   38.2000 H   0  0  0  0  0  0  0  0  0  0  0  0
   53.0600   35.5400   38.6400 C   0  0  0  0  0  0  0  0  0  0  0  0
   53.7600   36.3600   38.2900 H   0  0  0  0  0  0  0  0  0  0  0  0
   52.6500   35.6200   39.6200 H   0  0  0  0  0  0  0  0  0  0  0  0
   52.1100   35.0500   37.5100 C   0  0  0  0  0  0  0  0  0  0  0  0
   52.4700   34.7100   36.5500 H   0  0  0  0  0  0  0  0  0  0  0  0
   51.6500   35.8200   36.9800 H   0  0  0  0  0  0  0  0  0  0  0  0
   51.2800   34.4400   37.8600 H   0  0  0  0  0  0  0  0  0  0  0  0
   55.9200   41.2000   53.7400 C   0  0  0  0  0  0  0  0  0  0  0  0
   56.5800   41.9400   54.2600 H   0  0  0  0  0  0  0  0  0  0  0  0
   55.8400   41.5000   52.6900 H   0  0  0  0  0  0  0  0  0  0  0  0
   56.5600   39.9000   53.5400 C   0  0  0  0  0  0  0  0  0  0  0  0
   56.6400   39.2500   54.4100 H   0  0  0  0  0  0  0  0  0  0  0  0
   57.5600   40.3500   53.6100 H   0  0  0  0  0  0  0  0  0  0  0  0
   55.9800   38.9500   52.4500 C   0  0  0  0  0  0  0  0  0  0  0  0
   55.2800   38.3000   52.9200 H   0  0  0  0  0  0  0  0  0  0  0  0
   56.6600   38.1900   52.1100 H   0  0  0  0  0  0  0  0  0  0  0  0
   55.3900   39.4700   51.1300 C   0  0  0  0  0  0  0  0  0  0  0  0
   56.0200   40.3400   51.1100 H   0  0  0  0  0  0  0  0  0  0  0  0
   54.5400   40.1000   51.3200 H   0  0  0  0  0  0  0  0  0  0  0  0
   55.4900   38.5200   49.7800 C   0  0  0  0  0  0  0  0  0  0  0  0
   54.9100   37.6600   50.1200 H   0  0  0  0  0  0  0  0  0  0  0  0
   56.4800   38.0100   49.5600 H   0  0  0  0  0  0  0  0  0  0  0  0
   55.0200   39.0900   48.2500 C   0  0  0  0  0  0  0  0  0  0  0  0
   54.0700   39.4200   48.6300 H   0  0  0  0  0  0  0  0  0  0  0  0
   55.2300   38.1200   47.7200 H   0  0  0  0  0  0  0  0  0  0  0  0
   55.3400   40.3000   47.2500 C   0  0  0  0  0  0  0  0  0  0  0  0
   55.8500   41.1900   47.5700 H   0  0  0  0  0  0  0  0  0  0  0  0
   55.9800   40.3600   46.0800 C   0  0  0  0  0  0  0  0  0  0  0  0
   56.7000   41.1900   46.0000 H   0  0  0  0  0  0  0  0  0  0  0  0
   56.5500   39.2100   45.3700 C   0  0  0  0  0  0  0  0  0  0  0  0
   56.5300   39.7600   44.4200 H   0  0  0  0  0  0  0  0  0  0  0  0
   55.7100   38.6000   45.5800 H   0  0  0  0  0  0  0  0  0  0  0  0
   57.8500   38.3400   45.5100 C   0  0  0  0  0  0  0  0  0  0  0  0
   58.6200   38.4700   46.2500 H   0  0  0  0  0  0  0  0  0  0  0  0
   58.3900   37.3300   44.9500 C   0  0  0  0  0  0  0  0  0  0  0  0
   59.1500   36.7200   45.4300 H   0  0  0  0  0  0  0  0  0  0  0  0
   57.8000   36.6300   43.9300 C   0  0  0  0  0  0  0  0  0  0  0  0
   56.9500   36.8200   44.2800 H   0  0  0  0  0  0  0  0  0  0  0  0
   57.8100   35.5000   44.0300 H   0  0  0  0  0  0  0  0  0  0  0  0
   57.5600   37.1200   42.7800 C   0  0  0  0  0  0  0  0  0  0  0  0
   56.9000   38.1600   42.7800 H   0  0  0  0  0  0  0  0  0  0  0  0
   57.1000   36.1200   42.3700 H   0  0  0  0  0  0  0  0  0  0  0  0
   58.5400   36.9200   41.9100 C   0  0  0  0  0  0  0  0  0  0  0  0
   58.7000   35.8500   41.7700 H   0  0  0  0  0  0  0  0  0  0  0  0
   59.1800   37.6000   42.4200 H   0  0  0  0  0  0  0  0  0  0  0  0
   57.9700   37.3100   40.9700 C   0  0  0  0  0  0  0  0  0  0  0  0
   56.9400   37.7500   41.2100 H   0  0  0  0  0  0  0  0  0  0  0  0
   56.8500   36.7500   40.9400 H   0  0  0  0  0  0  0  0  0  0  0  0
   58.8800   38.0400   39.5900 C   0  0  0  0  0  0  0  0  0  0  0  0
   59.2500   39.0800   39.6500 H   0  0  0  0  0  0  0  0  0  0  0  0
   58.3800   38.4300   38.6200 H   0  0  0  0  0  0  0  0  0  0  0  0
   59.5700   37.3600   39.4000 H   0  0  0  0  0  0  0  0  0  0  0  0
   46.5300   37.9700   55.0600 C   0  0  0  0  0  0  0  0  0  0  0  0
   46.8100   38.7200   54.2700 H   0  0  0  0  0  0  0  0  0  0  0  0
   45.5800   38.3200   55.4700 H   0  0  0  0  0  0  0  0  0  0  0  0
   46.3400   36.5900   54.4200 C   0  0  0  0  0  0  0  0  0  0  0  0
   45.3000   36.3600   54.7000 H   0  0  0  0  0  0  0  0  0  0  0  0
   46.9800   35.8000   54.8800 H   0  0  0  0  0  0  0  0  0  0  0  0
   46.3700   36.6700   52.8800 C   0  0  0  0  0  0  0  0  0  0  0  0
   45.5500   37.3800   52.6300 H   0  0  0  0  0  0  0  0  0  0  0  0
   46.0900   35.7600   52.3000 H   0  0  0  0  0  0  0  0  0  0  0  0
   47.7100   37.1700   52.3200 C   0  0  0  0  0  0  0  0  0  0  0  0
   48.0100   38.1300   52.7900 H   0  0  0  0  0  0  0  0  0  0  0  0
   47.5300   37.4000   51.2600 H   0  0  0  0  0  0  0  0  0  0  0  0
   48.9300   36.2200   52.4800 C   0  0  0  0  0  0  0  0  0  0  0  0
   49.1700   35.9800   53.5500 H   0  0  0  0  0  0  0  0  0  0  0  0
   49.7800   36.8300   52.1200 H   0  0  0  0  0  0  0  0  0  0  0  0
   48.9100   34.9100   51.6700 C   0  0  0  0  0  0  0  0  0  0  0  0
   48.2200   34.1600   52.1200 H   0  0  0  0  0  0  0  0  0  0  0  0
   49.9500   34.5100   51.7000 H   0  0  0  0  0  0  0  0  0  0  0  0
   48.4400   35.1000   50.2600 C   0  0  0  0  0  0  0  0  0  0  0  0
   47.3600   35.3300   50.2000 H   0  0  0  0  0  0  0  0  0  0  0  0
   49.1300   35.0100   49.1200 C   0  0  0  0  0  0  0  0  0  0  0  0
   48.5900   35.2200   48.1900 H   0  0  0  0  0  0  0  0  0  0  0  0
   50.5900   34.6800   48.9200 C   0  0  0  0  0  0  0  0  0  0  0  0
   50.7500   34.1700   47.9500 H   0  0  0  0  0  0  0  0  0  0  0  0
   50.9300   33.9500   49.6900 H   0  0  0  0  0  0  0  0  0  0  0  0
   51.4200   35.9500   48.9900 C   0  0  0  0  0  0  0  0  0  0  0  0
   51.7800   36.2000   50.0000 H   0  0  0  0  0  0  0  0  0  0  0  0
   51.7300   36.7600   47.9600 C   0  0  0  0  0  0  0  0  0  0  0  0
   52.3600   37.6400   48.1700 H   0  0  0  0  0  0  0  0  0  0  0  0
   51.3100   36.5700   46.5200 C   0  0  0  0  0  0  0  0  0  0  0  0
   50.9700   35.5200   46.3800 H   0  0  0  0  0  0  0  0  0  0  0  0
   52.2200   36.6600   45.8800 H   0  0  0  0  0  0  0  0  0  0  0  0
   50.1300   37.4000   45.9400 C   0  0  0  0  0  0  0  0  0  0  0  0
   50.3800   38.4500   45.6700 H   0  0  0  0  0  0  0  0  0  0  0  0
   49.2900   37.4300   46.6800 H   0  0  0  0  0  0  0  0  0  0  0  0
   49.4900   36.7200   44.7300 C   0  0  0  0  0  0  0  0  0  0  0  0
   49.3800   35.6400   45.0000 H   0  0  0  0  0  0  0  0  0  0  0  0
   48.4900   37.1600   44.5400 H   0  0  0  0  0  0  0  0  0  0  0  0
   50.3300   36.9100   43.4700 C   0  0  0  0  0  0  0  0  0  0  0  0
   51.3500   36.5600   43.7000 H   0  0  0  0  0  0  0  0  0  0  0  0
   50.4000   38.0000   43.2400 H   0  0  0  0  0  0  0  0  0  0  0  0
   49.8400   36.2100   42.2000 C   0  0  0  0  0  0  0  0  0  0  0  0
   49.9900   35.1200   42.2600 H   0  0  0  0  0  0  0  0  0  0  0  0
   48.7600   36.3900   41.9800 H   0  0  0  0  0  0  0  0  0  0  0  0
   50.4800   36.5800   41.3700 H   0  0  0  0  0  0  0  0  0  0  0  0
   50.4100   39.9400   51.7500 C   0  0  0  0  0  0  0  0  0  0  0  0
   49.3500   40.1000   52.0200 H   0  0  0  0  0  0  0  0  0  0  0  0
   50.4400   39.1100   51.0000 H   0  0  0  0  0  0  0  0  0  0  0  0
   51.0300   41.1300   51.0200 C   0  0  0  0  0  0  0  0  0  0  0  0
   51.9700   40.7800   50.5500 H   0  0  0  0  0  0  0  0  0  0  0  0
   51.2900   41.9600   51.7100 H   0  0  0  0  0  0  0  0  0  0  0  0
   50.1500   41.7600   49.9600 C   0  0  0  0  0  0  0  0  0  0  0  0
   49.1800   42.0500   50.4500 H   0  0  0  0  0  0  0  0  0  0  0  0
   49.9300   41.0500   49.1400 H   0  0  0  0  0  0  0  0  0  0  0  0
   50.8600   43.0200   49.4600 C   0  0  0  0  0  0  0  0  0  0  0  0
   50.7300   43.8700   50.1600 H   0  0  0  0  0  0  0  0  0  0  0  0
   50.4200   43.3800   48.5600 H   0  0  0  0  0  0  0  0  0  0  0  0
   52.2400   42.9300   48.8000 C   0  0  0  0  0  0  0  0  0  0  0  0
   53.0000   42.8200   49.5900 H   0  0  0  0  0  0  0  0  0  0  0  0
   52.3800   43.9300   48.3200 H   0  0  0  0  0  0  0  0  0  0  0  0
   52.4300   41.8900   47.6400 C   0  0  0  0  0  0  0  0  0  0  0  0
   52.3600   40.8700   48.0700 H   0  0  0  0  0  0  0  0  0  0  0  0
   53.4800   42.0500   47.3500 H   0  0  0  0  0  0  0  0  0  0  0  0
   51.5800   41.9300   46.3800 C   0  0  0  0  0  0  0  0  0  0  0  0
   50.5100   42.1200   46.5400 H   0  0  0  0  0  0  0  0  0  0  0  0
   51.9800   41.7000   45.1100 C   0  0  0  0  0  0  0  0  0  0  0  0
   51.2300   41.7500   44.3000 H   0  0  0  0  0  0  0  0  0  0  0  0
   53.3600   41.3600   44.6500 C   0  0  0  0  0  0  0  0  0  0  0  0
   54.0800   41.5800   45.4300 H   0  0  0  0  0  0  0  0  0  0  0  0
   53.6800   41.9600   43.7800 H   0  0  0  0  0  0  0  0  0  0  0  0
   53.3300   39.9300   44.2600 C   0  0  0  0  0  0  0  0  0  0  0  0
   53.1400   39.1600   45.0300 H   0  0  0  0  0  0  0  0  0  0  0  0
   53.6600   39.5300   43.0500 C   0  0  0  0  0  0  0  0  0  0  0  0
   53.3700   38.5000   42.8600 H   0  0  0  0  0  0  0  0  0  0  0  0
   54.1300   40.1700   41.8000 C   0  0  0  0  0  0  0  0  0  0  0  0
   54.9500   39.6000   41.2900 H   0  0  0  0  0  0  0  0  0  0  0  0
   54.4800   41.1900   41.9900 H   0  0  0  0  0  0  0  0  0  0  0  0
   52.9400   40.1300   40.9300 C   0  0  0  0  0  0  0  0  0  0  0  0
   53.1000   40.7500   40.0300 H   0  0  0  0  0  0  0  0  0  0  0  0
   52.0500   40.5700   41.4100 H   0  0  0  0  0  0  0  0  0  0  0  0
   52.7900   38.7600   40.4100 C   0  0  0  0  0  0  0  0  0  0  0  0
   52.3600   37.9200   40.9500 H   0  0  0  0  0  0  0  0  0  0  0  0
   53.7300   38.5100   39.8300 H   0  0  0  0  0  0  0  0  0  0  0  0
   51.8100   39.0100   39.4400 C   0  0  0  0  0  0  0  0  0  0  0  0
   52.4500   38.6700   38.5700 H   0  0  0  0  0  0  0  0  0  0  0  0
   52.2100   39.8300   38.8900 H   0  0  0  0  0  0  0  0  0  0  0  0
   50.2000   39.0000   39.6900 C   0  0  0  0  0  0  0  0  0  0  0  0
   49.7300   38.0100   39.8700 H   0  0  0  0  0  0  0  0  0  0  0  0
   49.5000   39.0600   38.8200 H   0  0  0  0  0  0  0  0  0  0  0  0
   49.8000   39.8500   40.2200 H   0  0  0  0  0  0  0  0  0  0  0  0
  1  3  1  0  0  0  0
  1 12  1  0  0  0  0
  1  7  1  0  0  0  0
  2  1  1  0  0  0  0
  4  8  1  6  0  0  0
  4  5  1  0  0  0  0
  4  7  1  0  0  0  0
  6  4  2  0  0  0  0
  9 10  1  0  0  0  0
  9  8  1  0  0  0  0
 11  9  1  0  0  0  0
 12 13  1  6  0  0  0
 12 14  1  0  0  0  0
 14 15  1  0  0  0  0
 16 18  1  0  0  0  0
 16 17  1  0  0  0  0
 16 12  1  0  0  0  0
 19 21  2  6  0  0  0
 19 20  1  0  0  0  0
 19 23  1  0  0  0  0
 19 22  1  0  0  0  0
 22 16  1  0  0  0  0
 23 24  1  0  0  0  0
 24 25  1  0  0  0  0
 24 26  1  0  0  0  0
 27 28  1  6  0  0  0
 27 35  1  0  0  0  0
 27 24  1  0  0  0  0
 29 27  1  0  0  0  0
 30 29  1  0  0  0  0
 31 30  2  0  0  0  0
 32 33  1  0  0  0  0
 32 34  1  0  0  0  0
 32 30  1  0  0  0  0
 35 37  1  0  0  0  0
 36 35  1  0  0  0  0
 38 39  1  0  0  0  0
 38 35  1  0  0  0  0
 39 40  2  0  0  0  0
 41 42  1  0  0  0  0
 41 39  1  0  0  0  0
 43 41  1  0  0  0  0
 44 45  1  6  0  0  0
 44 46  1  0  0  0  0
 44  9  1  0  0  0  0
 47 46  1  0  0  0  0
 48 47  2  0  0  0  0
 49 47  1  0  0  0  0
 49 50  1  0  0  0  0
 51 49  1  0  0  0  0
 52 44  1  0  0  0  0
 52 54  1  0  0  0  0
 53 52  1  0  0  0  0
 55 52  1  0  0  0  0
 56 55  1  0  0  0  0
 57 56  2  0  0  0  0
 58 59  1  0  0  0  0
 58 56  1  0  0  0  0
 60 58  1  0  0  0  0
 61 32  1  0  0  0  0
 62 61  1  0  0  0  0
 63 61  1  0  0  0  0
 64 66  1  0  0  0  0
 64 61  1  0  0  0  0
 65 64  1  0  0  0  0
 67 68  1  0  0  0  0
 67 64  1  0  0  0  0
 69 67  1  0  0  0  0
 70 71  1  0  0  0  0
 70 72  1  0  0  0  0
 70 67  1  0  0  0  0
 73 74  1  0  0  0  0
 73 70  1  0  0  0  0
 75 73  1  0  0  0  0
 76 78  1  0  0  0  0
 76 73  1  0  0  0  0
 77 76  1  0  0  0  0
 79 80  1  0  0  0  0
 79 76  1  0  0  0  0
 81 79  1  0  0  0  0
 82 81  1  0  0  0  0
 83 81  1  0  0  0  0
 83 85  1  0  0  0  0
 84 83  1  0  0  0  0
 86 87  1  0  0  0  0
 86 83  1  0  0  0  0
 88 86  2  0  0  0  0
 89 88  1  0  0  0  0
 90 92  1  0  0  0  0
 90 91  1  0  0  0  0
 90 88  1  0  0  0  0
 93 90  1  0  0  0  0
 94 93  1  0  0  0  0
 95 93  1  0  0  0  0
 96 95  1  0  0  0  0
 97 95  1  0  0  0  0
 97 99  1  0  0  0  0
 98 97  1  0  0  0  0
100103  1  0  0  0  0
100 97  1  0  0  0  0
101100  1  0  0  0  0
102100  1  0  0  0  0
104105  1  0  0  0  0
104 41  1  0  0  0  0
106104  1  0  0  0  0
107109  1  0  0  0  0
107104  1  0  0  0  0
107108  1  0  0  0  0
110111  1  0  0  0  0
110107  1  0  0  0  0
112110  1  0  0  0  0
113115  1  0  0  0  0
113110  1  0  0  0  0
114113  1  0  0  0  0
116117  1  0  0  0  0
116113  1  0  0  0  0
118116  1  0  0  0  0
119120  1  0  0  0  0
119116  1  0  0  0  0
121119  1  0  0  0  0
122123  1  0  0  0  0
122119  1  0  0  0  0
124122  1  0  0  0  0
125124  1  0  0  0  0
126129  1  0  0  0  0
126128  1  0  0  0  0
126124  1  0  0  0  0
127126  1  0  0  0  0
129130  1  0  0  0  0
131132  1  0  0  0  0
131129  1  0  0  0  0
133135  1  0  0  0  0
133134  1  0  0  0  0
133131  1  0  0  0  0
136137  1  0  0  0  0
136133  1  0  0  0  0
138136  1  0  0  0  0
139141  1  0  0  0  0
139136  1  0  0  0  0
140139  1  0  0  0  0
142143  1  0  0  0  0
142139  1  0  0  0  0
144142  1  0  0  0  0
145146  1  0  0  0  0
145142  1  0  0  0  0
147145  1  0  0  0  0
148145  1  0  0  0  0
149151  1  0  0  0  0
149 49  1  0  0  0  0
150149  1  0  0  0  0
152153  1  0  0  0  0
152154  1  0  0  0  0
152149  1  0  0  0  0
155152  1  0  0  0  0
156155  1  0  0  0  0
157155  1  0  0  0  0
158161  1  0  0  0  0
158159  1  0  0  0  0
158155  1  0  0  0  0
160158  1  0  0  0  0
161162  1  0  0  0  0
163161  1  0  0  0  0
164166  1  0  0  0  0
164165  1  0  0  0  0
164161  1  0  0  0  0
167164  1  0  0  0  0
168167  1  0  0  0  0
169167  2  0  0  0  0
170169  1  0  0  0  0
171174  1  0  0  0  0
171169  1  0  0  0  0
171173  1  0  0  0  0
172171  1  0  0  0  0
174175  1  0  0  0  0
176177  1  0  0  0  0
176174  2  0  0  0  0
178176  1  0  0  0  0
179178  1  0  0  0  0
180178  1  0  0  0  0
181178  1  0  0  0  0
181183  1  0  0  0  0
182181  1  0  0  0  0
184185  1  0  0  0  0
184181  1  0  0  0  0
186184  1  0  0  0  0
187188  1  0  0  0  0
187184  1  0  0  0  0
189187  1  0  0  0  0
190191  1  0  0  0  0
190187  1  0  0  0  0
192190  1  0  0  0  0
193190  1  0  0  0  0
194195  1  0  0  0  0
194 58  1  0  0  0  0
196194  1  0  0  0  0
197199  1  0  0  0  0
197194  1  0  0  0  0
198197  1  0  0  0  0
200201  1  0  0  0  0
200197  1  0  0  0  0
202200  1  0  0  0  0
203200  1  0  0  0  0
203204  1  0  0  0  0
205203  1  0  0  0  0
206203  1  0  0  0  0
206207  1  0  0  0  0
208206  1  0  0  0  0
209210  1  0  0  0  0
209206  1  0  0  0  0
211209  1  0  0  0  0
212213  1  0  0  0  0
212209  1  0  0  0  0
214212  2  0  0  0  0
215214  1  0  0  0  0
216214  1  0  0  0  0
216217  1  0  0  0  0
218216  1  0  0  0  0
219216  1  0  0  0  0
219220  1  0  0  0  0
221219  1  0  0  0  0
222221  1  0  0  0  0
223225  1  0  0  0  0
223221  1  0  0  0  0
224223  1  0  0  0  0
226228  1  0  0  0  0
226223  1  0  0  0  0
227226  1  0  0  0  0
229226  1  0  0  0  0
229230  1  0  0  0  0
231229  1  0  0  0  0
232235  1  0  0  0  0
232229  1  0  0  0  0
233232  1  0  0  0  0
234232  1  0  0  0  0
235236  1  0  0  0  0
235238  1  0  0  0  0
237235  1  0  0  0  0
M  END
