CER240
 OpenBabel02161614153D

129127  0  0  1  0  0  0  0  0999 V2000
   10.2300   15.5400   65.3200 O   0  0  0  0  0  0  0  0  0  0  0  0
    9.3200   15.3300   65.5200 H   0  0  0  0  0  0  0  0  0  0  0  0
   10.7400   14.3500   64.7100 C   0  0  0  0  0  0  0  0  0  0  0  0
   11.8400   14.2600   64.7300 H   0  0  0  0  0  0  0  0  0  0  0  0
   10.3100   13.5300   65.3200 H   0  0  0  0  0  0  0  0  0  0  0  0
   10.0500   12.8000   62.8200 N   0  0  0  0  0  0  0  0  0  0  0  0
   10.7300   12.4400   62.2100 H   0  0  0  0  0  0  0  0  0  0  0  0
   10.2300   14.1900   63.2400 C   0  0  2  0  0  0  0  0  0  0  0  0
    9.2500   14.7000   63.1500 H   0  0  0  0  0  0  0  0  0  0  0  0
   11.2200   14.9100   62.3200 C   0  0  2  0  0  0  0  0  0  0  0  0
   12.2500   14.5200   62.4800 H   0  0  0  0  0  0  0  0  0  0  0  0
   11.2400   16.3200   62.5100 O   0  0  0  0  0  0  0  0  0  0  0  0
   10.8900   16.5000   63.3800 H   0  0  0  0  0  0  0  0  0  0  0  0
   10.7900   14.7600   60.8800 C   0  0  0  0  0  0  0  0  0  0  0  0
    9.8000   15.1900   60.6900 H   0  0  0  0  0  0  0  0  0  0  0  0
   11.4700   14.1800   59.8900 C   0  0  0  0  0  0  0  0  0  0  0  0
   12.4300   13.7400   60.1500 H   0  0  0  0  0  0  0  0  0  0  0  0
   11.0600   14.0300   58.4400 C   0  0  0  0  0  0  0  0  0  0  0  0
    9.9800   14.2400   58.3100 H   0  0  0  0  0  0  0  0  0  0  0  0
   11.2500   12.9800   58.0700 H   0  0  0  0  0  0  0  0  0  0  0  0
   11.7500   15.1100   57.5700 C   0  0  0  0  0  0  0  0  0  0  0  0
   12.8300   15.1500   57.7500 H   0  0  0  0  0  0  0  0  0  0  0  0
   11.6100   16.0900   58.0100 H   0  0  0  0  0  0  0  0  0  0  0  0
   11.4500   15.0900   56.0400 C   0  0  0  0  0  0  0  0  0  0  0  0
   12.0800   15.9100   55.6000 H   0  0  0  0  0  0  0  0  0  0  0  0
   10.3900   15.3200   55.9100 H   0  0  0  0  0  0  0  0  0  0  0  0
   11.5400   13.7700   55.2200 C   0  0  0  0  0  0  0  0  0  0  0  0
   11.1800   12.8000   55.4800 H   0  0  0  0  0  0  0  0  0  0  0  0
   12.4400   13.3000   55.4100 H   0  0  0  0  0  0  0  0  0  0  0  0
   11.3600   13.8100   53.7100 C   0  0  0  0  0  0  0  0  0  0  0  0
   12.3000   13.9800   53.4700 H   0  0  0  0  0  0  0  0  0  0  0  0
   11.0500   14.8000   53.3600 H   0  0  0  0  0  0  0  0  0  0  0  0
   11.8000   12.5100   52.8800 C   0  0  0  0  0  0  0  0  0  0  0  0
   10.8500   12.0900   53.0300 H   0  0  0  0  0  0  0  0  0  0  0  0
   12.6700   11.9200   53.2500 H   0  0  0  0  0  0  0  0  0  0  0  0
   11.8300   12.3400   51.3400 C   0  0  0  0  0  0  0  0  0  0  0  0
   12.1800   13.2700   51.2500 H   0  0  0  0  0  0  0  0  0  0  0  0
   11.1200   12.8600   50.7100 H   0  0  0  0  0  0  0  0  0  0  0  0
   12.8700   11.4000   50.6100 C   0  0  0  0  0  0  0  0  0  0  0  0
   12.4900   10.4100   50.8800 H   0  0  0  0  0  0  0  0  0  0  0  0
   13.9000   11.3900   51.0600 H   0  0  0  0  0  0  0  0  0  0  0  0
   12.9400   11.6100   49.0500 C   0  0  0  0  0  0  0  0  0  0  0  0
   13.6400   12.3000   48.5400 H   0  0  0  0  0  0  0  0  0  0  0  0
   12.0400   12.1300   48.7000 H   0  0  0  0  0  0  0  0  0  0  0  0
   13.5500   10.5000   48.2800 C   0  0  0  0  0  0  0  0  0  0  0  0
   12.7700    9.7600   48.4900 H   0  0  0  0  0  0  0  0  0  0  0  0
   14.5500   10.2000   48.6900 H   0  0  0  0  0  0  0  0  0  0  0  0
   13.6200   10.8400   46.7900 C   0  0  0  0  0  0  0  0  0  0  0  0
   14.5200   11.4700   46.6000 H   0  0  0  0  0  0  0  0  0  0  0  0
   12.7000   11.4300   46.5500 H   0  0  0  0  0  0  0  0  0  0  0  0
   13.6500    9.5500   46.0000 C   0  0  0  0  0  0  0  0  0  0  0  0
   12.8400    8.8500   46.3200 H   0  0  0  0  0  0  0  0  0  0  0  0
   14.6400    9.1500   46.2500 H   0  0  0  0  0  0  0  0  0  0  0  0
   13.6400    9.5900   44.4900 C   0  0  0  0  0  0  0  0  0  0  0  0
   14.6000   10.0000   44.1200 H   0  0  0  0  0  0  0  0  0  0  0  0
   12.8100   10.2000   44.0900 H   0  0  0  0  0  0  0  0  0  0  0  0
   13.5500    8.5400   44.1300 H   0  0  0  0  0  0  0  0  0  0  0  0
    8.9600   12.1500   63.2100 C   0  0  0  0  0  0  0  0  0  0  0  0
    8.0400   12.7600   63.7200 O   0  0  0  0  0  0  0  0  0  0  0  0
    8.9500   10.6700   63.0500 C   0  0  0  0  0  0  0  0  0  0  0  0
    8.1400   10.2500   63.6700 H   0  0  0  0  0  0  0  0  0  0  0  0
    9.8500   10.2700   63.5100 H   0  0  0  0  0  0  0  0  0  0  0  0
    8.7400   10.2300   61.5900 C   0  0  0  0  0  0  0  0  0  0  0  0
    7.7900   10.6700   61.2200 H   0  0  0  0  0  0  0  0  0  0  0  0
    8.6000    9.1200   61.5100 H   0  0  0  0  0  0  0  0  0  0  0  0
    9.9000   10.5600   60.6500 C   0  0  0  0  0  0  0  0  0  0  0  0
   10.7900   10.0500   61.0300 H   0  0  0  0  0  0  0  0  0  0  0  0
   10.0600   11.6500   60.5300 H   0  0  0  0  0  0  0  0  0  0  0  0
    9.6800   10.0200   59.2600 C   0  0  0  0  0  0  0  0  0  0  0  0
    9.6400    8.9200   59.3800 H   0  0  0  0  0  0  0  0  0  0  0  0
   10.5100   10.1900   58.5500 H   0  0  0  0  0  0  0  0  0  0  0  0
    8.4000   10.6000   58.6300 C   0  0  0  0  0  0  0  0  0  0  0  0
    8.2300   11.6400   58.9200 H   0  0  0  0  0  0  0  0  0  0  0  0
    7.5300   10.1300   59.1100 H   0  0  0  0  0  0  0  0  0  0  0  0
    8.4300   10.5300   57.0800 C   0  0  0  0  0  0  0  0  0  0  0  0
    8.6100    9.5800   56.5400 H   0  0  0  0  0  0  0  0  0  0  0  0
    9.3500   11.0300   56.7900 H   0  0  0  0  0  0  0  0  0  0  0  0
    7.1600   11.0000   56.4000 C   0  0  0  0  0  0  0  0  0  0  0  0
    6.4900   11.4400   57.1600 H   0  0  0  0  0  0  0  0  0  0  0  0
    6.6600   10.1300   55.9100 H   0  0  0  0  0  0  0  0  0  0  0  0
    7.4800   11.9500   55.2700 C   0  0  0  0  0  0  0  0  0  0  0  0
    8.1400   12.7400   55.6900 H   0  0  0  0  0  0  0  0  0  0  0  0
    6.5300   12.3900   54.9100 H   0  0  0  0  0  0  0  0  0  0  0  0
    8.2600   11.3500   54.0900 C   0  0  0  0  0  0  0  0  0  0  0  0
    7.6400   10.5400   53.7000 H   0  0  0  0  0  0  0  0  0  0  0  0
    9.2500   10.9700   54.4100 H   0  0  0  0  0  0  0  0  0  0  0  0
    8.3900   12.3500   52.9300 C   0  0  0  0  0  0  0  0  0  0  0  0
    9.0700   13.1400   53.2800 H   0  0  0  0  0  0  0  0  0  0  0  0
    7.3900   12.8200   52.8100 H   0  0  0  0  0  0  0  0  0  0  0  0
    8.8700   11.7800   51.5800 C   0  0  0  0  0  0  0  0  0  0  0  0
    9.6800   11.0300   51.7100 H   0  0  0  0  0  0  0  0  0  0  0  0
    9.3000   12.6200   51.0000 H   0  0  0  0  0  0  0  0  0  0  0  0
    7.7600   11.2500   50.6900 C   0  0  0  0  0  0  0  0  0  0  0  0
    6.9600   12.0000   50.5000 H   0  0  0  0  0  0  0  0  0  0  0  0
    7.3000   10.4300   51.2700 H   0  0  0  0  0  0  0  0  0  0  0  0
    8.3200   10.8000   49.3400 C   0  0  0  0  0  0  0  0  0  0  0  0
    9.1100   10.0400   49.5000 H   0  0  0  0  0  0  0  0  0  0  0  0
    8.7500   11.6700   48.8200 H   0  0  0  0  0  0  0  0  0  0  0  0
    7.3000   10.2000   48.4100 C   0  0  0  0  0  0  0  0  0  0  0  0
    6.3900   10.8200   48.2200 H   0  0  0  0  0  0  0  0  0  0  0  0
    7.0200    9.3700   49.1200 H   0  0  0  0  0  0  0  0  0  0  0  0
    7.8100    9.6600   47.0500 C   0  0  0  0  0  0  0  0  0  0  0  0
    8.3500    8.7000   47.2300 H   0  0  0  0  0  0  0  0  0  0  0  0
    8.4900   10.3900   46.6100 H   0  0  0  0  0  0  0  0  0  0  0  0
    6.7700    9.3600   45.9600 C   0  0  0  0  0  0  0  0  0  0  0  0
    6.0600   10.0600   45.5100 H   0  0  0  0  0  0  0  0  0  0  0  0
    6.0800    8.9800   46.6500 H   0  0  0  0  0  0  0  0  0  0  0  0
    7.2500    8.2900   44.9700 C   0  0  0  0  0  0  0  0  0  0  0  0
    6.4500    7.7300   44.4900 H   0  0  0  0  0  0  0  0  0  0  0  0
    7.7400    7.4800   45.4900 H   0  0  0  0  0  0  0  0  0  0  0  0
    8.1900    8.8400   43.9500 C   0  0  0  0  0  0  0  0  0  0  0  0
    9.1600    8.7400   44.4700 H   0  0  0  0  0  0  0  0  0  0  0  0
    7.8900    9.8500   43.6700 H   0  0  0  0  0  0  0  0  0  0  0  0
    8.2300    8.1300   42.6300 C   0  0  0  0  0  0  0  0  0  0  0  0
    7.3100    7.8100   42.1100 H   0  0  0  0  0  0  0  0  0  0  0  0
    8.5500    7.2500   42.9600 H   0  0  0  0  0  0  0  0  0  0  0  0
    9.2900    8.5500   41.6600 C   0  0  0  0  0  0  0  0  0  0  0  0
    8.9200    9.5100   41.3300 H   0  0  0  0  0  0  0  0  0  0  0  0
    9.0800    7.8700   40.8300 H   0  0  0  0  0  0  0  0  0  0  0  0
   10.6800    8.6200   42.3100 C   0  0  0  0  0  0  0  0  0  0  0  0
   10.9000    7.6600   42.8100 H   0  0  0  0  0  0  0  0  0  0  0  0
   10.6100    9.4300   43.0800 H   0  0  0  0  0  0  0  0  0  0  0  0
   11.8500    9.2700   41.5800 C   0  0  0  0  0  0  0  0  0  0  0  0
   12.7700    9.3300   42.1700 H   0  0  0  0  0  0  0  0  0  0  0  0
   11.5700   10.0700   40.8500 H   0  0  0  0  0  0  0  0  0  0  0  0
   12.7700    8.4400   40.9300 C   0  0  0  0  0  0  0  0  0  0  0  0
   11.8500    8.3000   40.5100 H   0  0  0  0  0  0  0  0  0  0  0  0
   12.8400    7.3600   41.2600 H   0  0  0  0  0  0  0  0  0  0  0  0
   13.0900    8.6900   39.8700 H   0  0  0  0  0  0  0  0  0  0  0  0
  1  2  1  0  0  0  0
  3  4  1  0  0  0  0
  3  1  1  0  0  0  0
  3  5  1  0  0  0  0
  6 58  1  0  0  0  0
  6  8  1  0  0  0  0
  7  6  1  0  0  0  0
  8  9  1  6  0  0  0
  8  3  1  0  0  0  0
 10 11  1  1  0  0  0
 10 12  1  0  0  0  0
 10  8  1  0  0  0  0
 12 13  1  0  0  0  0
 14 10  1  0  0  0  0
 15 14  1  0  0  0  0
 16 17  1  0  0  0  0
 16 14  2  0  0  0  0
 18 16  1  0  0  0  0
 19 18  1  0  0  0  0
 20 18  1  0  0  0  0
 21 22  1  0  0  0  0
 21 23  1  0  0  0  0
 21 18  1  0  0  0  0
 24 21  1  0  0  0  0
 25 24  1  0  0  0  0
 26 24  1  0  0  0  0
 27 29  1  0  0  0  0
 27 28  1  0  0  0  0
 27 24  1  0  0  0  0
 30 27  1  0  0  0  0
 31 30  1  0  0  0  0
 32 30  1  0  0  0  0
 33 34  1  0  0  0  0
 33 35  1  0  0  0  0
 33 30  1  0  0  0  0
 36 33  1  0  0  0  0
 37 36  1  0  0  0  0
 38 36  1  0  0  0  0
 39 40  1  0  0  0  0
 39 41  1  0  0  0  0
 39 36  1  0  0  0  0
 42 39  1  0  0  0  0
 43 42  1  0  0  0  0
 44 42  1  0  0  0  0
 45 46  1  0  0  0  0
 45 47  1  0  0  0  0
 45 42  1  0  0  0  0
 48 45  1  0  0  0  0
 49 48  1  0  0  0  0
 50 48  1  0  0  0  0
 51 53  1  0  0  0  0
 51 52  1  0  0  0  0
 51 48  1  0  0  0  0
 54 51  1  0  0  0  0
 55 54  1  0  0  0  0
 56 54  1  0  0  0  0
 57 54  1  0  0  0  0
 58 59  2  0  0  0  0
 60 58  1  0  0  0  0
 60 62  1  0  0  0  0
 60 61  1  0  0  0  0
 63 60  1  0  0  0  0
 64 63  1  0  0  0  0
 65 63  1  0  0  0  0
 66 67  1  0  0  0  0
 66 63  1  0  0  0  0
 68 66  1  0  0  0  0
 69 70  1  0  0  0  0
 69 66  1  0  0  0  0
 71 69  1  0  0  0  0
 72 73  1  0  0  0  0
 72 74  1  0  0  0  0
 72 69  1  0  0  0  0
 75 72  1  0  0  0  0
 76 75  1  0  0  0  0
 77 75  1  0  0  0  0
 78 75  1  0  0  0  0
 78 79  1  0  0  0  0
 80 78  1  0  0  0  0
 81 82  1  0  0  0  0
 81 78  1  0  0  0  0
 83 81  1  0  0  0  0
 84 86  1  0  0  0  0
 84 81  1  0  0  0  0
 85 84  1  0  0  0  0
 87 88  1  0  0  0  0
 87 84  1  0  0  0  0
 89 87  1  0  0  0  0
 90 91  1  0  0  0  0
 90 87  1  0  0  0  0
 92 90  1  0  0  0  0
 93 95  1  0  0  0  0
 93 90  1  0  0  0  0
 94 93  1  0  0  0  0
 96 97  1  0  0  0  0
 96 93  1  0  0  0  0
 98 96  1  0  0  0  0
 99101  1  0  0  0  0
 99 96  1  0  0  0  0
100 99  1  0  0  0  0
102103  1  0  0  0  0
102 99  1  0  0  0  0
104102  1  0  0  0  0
105107  1  0  0  0  0
105102  1  0  0  0  0
106105  1  0  0  0  0
108110  1  0  0  0  0
108105  1  0  0  0  0
109108  1  0  0  0  0
111112  1  0  0  0  0
111108  1  0  0  0  0
113111  1  0  0  0  0
114116  1  0  0  0  0
114111  1  0  0  0  0
115114  1  0  0  0  0
117120  1  0  0  0  0
117114  1  0  0  0  0
118117  1  0  0  0  0
119117  1  0  0  0  0
120121  1  0  0  0  0
120122  1  0  0  0  0
123124  1  0  0  0  0
125123  1  0  0  0  0
126128  1  0  0  0  0
126123  1  0  0  0  0
127126  1  0  0  0  0
129126  1  0  0  0  0
M  END
