POPI14
 OpenBabel02161614153D

140140  0  0  1  0  0  0  0  0999 V2000
   24.3900   25.2200   62.3100 C   0  0  2  0  0  0  0  0  0  0  0  0
   24.0800   25.8900   61.4600 H   0  0  0  0  0  0  0  0  0  0  0  0
   25.7700   25.5200   62.6300 O   0  0  0  0  0  0  0  0  0  0  0  0
   25.9900   26.3300   62.1600 H   0  0  0  0  0  0  0  0  0  0  0  0
   23.4500   25.5600   63.4500 C   0  0  2  0  0  0  0  0  0  0  0  0
   22.4000   25.3800   63.1400 H   0  0  0  0  0  0  0  0  0  0  0  0
   23.6300   26.9500   63.6500 O   0  0  0  0  0  0  0  0  0  0  0  0
   24.5500   27.1100   63.7900 H   0  0  0  0  0  0  0  0  0  0  0  0
   23.7200   24.6500   64.6900 C   0  0  1  0  0  0  0  0  0  0  0  0
   24.8000   24.7800   64.9400 H   0  0  0  0  0  0  0  0  0  0  0  0
   22.8600   24.9700   65.8000 O   0  0  0  0  0  0  0  0  0  0  0  0
   23.5500   25.2300   67.2800 P   0  0  0  0  0  0  0  0  0  0  0  0
   24.7400   26.2000   67.1300 O   0  0  0  0  0  0  0  0  0  0  0  0
   23.8600   23.7900   67.7500 O   0  0  0  0  0  0  0  0  0  0  0  0
   22.5000   25.7700   68.2400 O   0  0  0  0  0  0  0  0  0  0  0  0
   23.4300   23.2100   64.2400 C   0  0  2  0  0  0  0  0  0  0  0  0
   22.3600   23.1200   63.9500 H   0  0  0  0  0  0  0  0  0  0  0  0
   23.6900   22.2200   65.2500 O   0  0  0  0  0  0  0  0  0  0  0  0
   23.1300   22.4700   65.9600 H   0  0  0  0  0  0  0  0  0  0  0  0
   24.2700   22.8600   63.0400 C   0  0  1  0  0  0  0  0  0  0  0  0
   25.2900   22.8700   63.3800 H   0  0  0  0  0  0  0  0  0  0  0  0
   23.9100   21.5500   62.6100 O   0  0  0  0  0  0  0  0  0  0  0  0
   24.2200   20.8800   63.2400 H   0  0  0  0  0  0  0  0  0  0  0  0
   24.1100   23.8100   61.8800 C   0  0  2  0  0  0  0  0  0  0  0  0
   23.0500   23.7800   61.5800 H   0  0  0  0  0  0  0  0  0  0  0  0
   24.4300   23.7500   59.2500 P   0  0  2  0  0  0  0  0  0  0  0  0
   24.3200   25.2200   59.1000 O   0  0  0  0  0  0  0  0  0  0  0  0
   23.1600   22.9800   59.1900 O   0  0  0  0  0  0  0  0  0  0  0  0
   24.9900   23.4600   60.7800 O   0  0  0  0  0  0  0  0  0  0  0  0
   25.5200   23.1600   58.2600 O   0  0  0  0  0  0  0  0  0  0  0  0
   26.8800   23.5800   58.2700 C   0  0  0  0  0  0  0  0  0  0  0  0
   27.4500   22.8400   58.8800 H   0  0  0  0  0  0  0  0  0  0  0  0
   27.0100   24.5800   58.7500 H   0  0  0  0  0  0  0  0  0  0  0  0
   27.4800   23.5500   56.8300 C   0  0  2  0  0  0  0  0  0  0  0  0
   28.5300   23.9400   56.8500 H   0  0  0  0  0  0  0  0  0  0  0  0
   26.7000   24.3000   55.8900 O   0  0  0  0  0  0  0  0  0  0  0  0
   26.8000   25.5900   56.1000 C   0  0  0  0  0  0  0  0  0  0  0  0
   27.5100   26.1500   56.9200 O   0  0  0  0  0  0  0  0  0  0  0  0
   25.9600   26.2600   55.0100 C   0  0  0  0  0  0  0  0  0  0  0  0
   25.0700   25.6500   54.7900 H   0  0  0  0  0  0  0  0  0  0  0  0
   26.5200   26.3300   54.0600 H   0  0  0  0  0  0  0  0  0  0  0  0
   27.5800   22.0600   56.3900 C   0  0  0  0  0  0  0  0  0  0  0  0
   28.5500   21.7400   56.8300 H   0  0  0  0  0  0  0  0  0  0  0  0
   26.7700   21.4900   56.9000 H   0  0  0  0  0  0  0  0  0  0  0  0
   27.6000   21.8200   54.9600 O   0  0  0  0  0  0  0  0  0  0  0  0
   26.4100   21.6200   54.3700 C   0  0  0  0  0  0  0  0  0  0  0  0
   25.3400   21.5600   54.9300 O   0  0  0  0  0  0  0  0  0  0  0  0
   26.5800   21.4300   52.8700 C   0  0  0  0  0  0  0  0  0  0  0  0
   26.7300   20.3500   52.6600 H   0  0  0  0  0  0  0  0  0  0  0  0
   27.4800   21.9800   52.5100 H   0  0  0  0  0  0  0  0  0  0  0  0
   25.4900   27.6300   55.5200 C   0  0  0  0  0  0  0  0  0  0  0  0
   26.3200   28.2600   55.8800 H   0  0  0  0  0  0  0  0  0  0  0  0
   24.7600   27.4500   56.3500 H   0  0  0  0  0  0  0  0  0  0  0  0
   24.8800   28.3900   54.4000 C   0  0  0  0  0  0  0  0  0  0  0  0
   25.4100   28.2100   53.4400 H   0  0  0  0  0  0  0  0  0  0  0  0
   24.8000   29.4800   54.6100 H   0  0  0  0  0  0  0  0  0  0  0  0
   23.5300   27.9100   54.1800 C   0  0  0  0  0  0  0  0  0  0  0  0
   22.8400   28.4200   54.9100 H   0  0  0  0  0  0  0  0  0  0  0  0
   23.3000   26.8400   54.3400 H   0  0  0  0  0  0  0  0  0  0  0  0
   23.3700   28.2800   52.7700 C   0  0  0  0  0  0  0  0  0  0  0  0
   23.6100   27.6700   51.8800 H   0  0  0  0  0  0  0  0  0  0  0  0
   23.6700   29.3400   52.4900 H   0  0  0  0  0  0  0  0  0  0  0  0
   22.0200   28.1200   53.0200 C   0  0  0  0  0  0  0  0  0  0  0  0
   22.0300   28.7000   52.0200 H   0  0  0  0  0  0  0  0  0  0  0  0
   21.4800   29.0900   52.7300 H   0  0  0  0  0  0  0  0  0  0  0  0
   21.1700   26.4600   53.3700 C   0  0  0  0  0  0  0  0  0  0  0  0
   20.0200   26.2800   53.3100 H   0  0  0  0  0  0  0  0  0  0  0  0
   21.1000   26.4800   54.4600 H   0  0  0  0  0  0  0  0  0  0  0  0
   21.4400   25.1400   52.4600 C   0  0  0  0  0  0  0  0  0  0  0  0
   22.4500   24.9100   52.6200 H   0  0  0  0  0  0  0  0  0  0  0  0
   21.2600   24.6400   51.1500 C   0  0  0  0  0  0  0  0  0  0  0  0
   22.0200   24.0200   50.7100 H   0  0  0  0  0  0  0  0  0  0  0  0
   20.7200   24.9000   49.7600 C   0  0  0  0  0  0  0  0  0  0  0  0
   21.0700   25.7500   49.0900 H   0  0  0  0  0  0  0  0  0  0  0  0
   19.7200   25.0500   50.0600 H   0  0  0  0  0  0  0  0  0  0  0  0
   20.1700   23.8400   48.9600 C   0  0  0  0  0  0  0  0  0  0  0  0
   19.1600   23.6600   48.6000 H   0  0  0  0  0  0  0  0  0  0  0  0
   19.9900   23.2000   49.8100 H   0  0  0  0  0  0  0  0  0  0  0  0
   20.7200   23.6500   47.6100 C   0  0  0  0  0  0  0  0  0  0  0  0
   20.0800   22.8600   47.1300 H   0  0  0  0  0  0  0  0  0  0  0  0
   21.6800   23.3500   48.0800 H   0  0  0  0  0  0  0  0  0  0  0  0
   20.9500   24.7500   46.5900 C   0  0  0  0  0  0  0  0  0  0  0  0
   21.6100   24.1500   45.9200 H   0  0  0  0  0  0  0  0  0  0  0  0
   21.4600   25.6000   47.0800 H   0  0  0  0  0  0  0  0  0  0  0  0
   19.8300   25.3200   45.7300 C   0  0  0  0  0  0  0  0  0  0  0  0
   19.3400   26.1000   46.3300 H   0  0  0  0  0  0  0  0  0  0  0  0
   19.1300   24.6100   45.2300 H   0  0  0  0  0  0  0  0  0  0  0  0
   20.1100   26.3700   44.7800 C   0  0  0  0  0  0  0  0  0  0  0  0
   20.7100   27.1100   45.3800 H   0  0  0  0  0  0  0  0  0  0  0  0
   19.1400   26.8300   44.5200 H   0  0  0  0  0  0  0  0  0  0  0  0
   20.6900   25.5800   43.6700 C   0  0  0  0  0  0  0  0  0  0  0  0
   20.2300   24.6200   43.3900 H   0  0  0  0  0  0  0  0  0  0  0  0
   21.6800   25.2600   44.0700 H   0  0  0  0  0  0  0  0  0  0  0  0
   20.7000   26.4600   42.4700 C   0  0  0  0  0  0  0  0  0  0  0  0
   21.2600   27.2800   42.9600 H   0  0  0  0  0  0  0  0  0  0  0  0
   21.3200   25.9900   41.6700 H   0  0  0  0  0  0  0  0  0  0  0  0
   19.7900   26.9200   42.1100 H   0  0  0  0  0  0  0  0  0  0  0  0
   25.3300   21.9100   52.1200 C   0  0  0  0  0  0  0  0  0  0  0  0
   24.3600   21.5000   52.4900 H   0  0  0  0  0  0  0  0  0  0  0  0
   25.4300   21.5200   51.0800 H   0  0  0  0  0  0  0  0  0  0  0  0
   25.2800   23.4300   52.0200 C   0  0  0  0  0  0  0  0  0  0  0  0
   26.3300   23.8200   52.0400 H   0  0  0  0  0  0  0  0  0  0  0  0
   24.7400   23.9100   52.8600 H   0  0  0  0  0  0  0  0  0  0  0  0
   24.7200   23.8100   50.6600 C   0  0  0  0  0  0  0  0  0  0  0  0
   23.6800   23.4900   50.5600 H   0  0  0  0  0  0  0  0  0  0  0  0
   25.2500   23.2000   49.9000 H   0  0  0  0  0  0  0  0  0  0  0  0
   24.9100   25.2700   50.3600 C   0  0  0  0  0  0  0  0  0  0  0  0
   25.9700   25.5600   50.5800 H   0  0  0  0  0  0  0  0  0  0  0  0
   24.2700   25.9300   51.0000 H   0  0  0  0  0  0  0  0  0  0  0  0
   24.6100   25.5700   48.9000 C   0  0  0  0  0  0  0  0  0  0  0  0
   24.7800   26.6500   49.0400 H   0  0  0  0  0  0  0  0  0  0  0  0
   23.5500   25.4600   48.6100 H   0  0  0  0  0  0  0  0  0  0  0  0
   25.5400   24.7300   47.9500 C   0  0  0  0  0  0  0  0  0  0  0  0
   25.0900   23.7000   47.9800 H   0  0  0  0  0  0  0  0  0  0  0  0
   26.5700   24.7400   48.3500 H   0  0  0  0  0  0  0  0  0  0  0  0
   25.6900   24.9500   46.4100 C   0  0  0  0  0  0  0  0  0  0  0  0
   24.6200   25.1400   46.1500 H   0  0  0  0  0  0  0  0  0  0  0  0
   25.8800   24.0300   45.8400 H   0  0  0  0  0  0  0  0  0  0  0  0
   26.8800   25.8800   45.8900 C   0  0  0  0  0  0  0  0  0  0  0  0
   27.7900   25.8900   46.5000 H   0  0  0  0  0  0  0  0  0  0  0  0
   26.6800   26.7900   46.3700 H   0  0  0  0  0  0  0  0  0  0  0  0
   26.8600   26.4800   44.4100 C   0  0  0  0  0  0  0  0  0  0  0  0
   25.8700   26.5000   43.9900 H   0  0  0  0  0  0  0  0  0  0  0  0
   27.0500   25.7400   43.6500 H   0  0  0  0  0  0  0  0  0  0  0  0
   27.3100   27.9700   44.1500 C   0  0  0  0  0  0  0  0  0  0  0  0
   28.2800   27.9900   44.6400 H   0  0  0  0  0  0  0  0  0  0  0  0
   26.8100   28.8600   44.6200 H   0  0  0  0  0  0  0  0  0  0  0  0
   27.4800   28.2800   42.6400 C   0  0  0  0  0  0  0  0  0  0  0  0
   27.8800   27.3500   42.2000 H   0  0  0  0  0  0  0  0  0  0  0  0
   27.9900   29.2500   42.4900 H   0  0  0  0  0  0  0  0  0  0  0  0
   26.2200   28.5500   41.9100 C   0  0  0  0  0  0  0  0  0  0  0  0
   25.7200   29.3100   42.5600 H   0  0  0  0  0  0  0  0  0  0  0  0
   25.9500   27.4700   41.9300 H   0  0  0  0  0  0  0  0  0  0  0  0
   25.7400   28.5100   40.4900 C   0  0  0  0  0  0  0  0  0  0  0  0
   25.9600   29.5600   40.4200 H   0  0  0  0  0  0  0  0  0  0  0  0
   24.6300   28.3700   40.2800 H   0  0  0  0  0  0  0  0  0  0  0  0
   26.4200   27.4500   39.7400 C   0  0  0  0  0  0  0  0  0  0  0  0
   27.5000   27.6500   39.9000 H   0  0  0  0  0  0  0  0  0  0  0  0
   26.1300   26.4200   40.0200 H   0  0  0  0  0  0  0  0  0  0  0  0
   26.0900   27.4700   38.6900 H   0  0  0  0  0  0  0  0  0  0  0  0
  1  2  1  6  0  0  0
  1  3  1  0  0  0  0
  1  5  1  0  0  0  0
  4  3  1  0  0  0  0
  5  6  1  6  0  0  0
  5  7  1  0  0  0  0
  5  9  1  0  0  0  0
  7  8  1  0  0  0  0
  9 10  1  1  0  0  0
  9 11  1  0  0  0  0
 11 12  1  0  0  0  0
 12 14  1  0  0  0  0
 12 15  1  0  0  0  0
 13 12  2  0  0  0  0
 16 17  1  6  0  0  0
 16  9  1  0  0  0  0
 16 18  1  0  0  0  0
 18 19  1  0  0  0  0
 20 21  1  1  0  0  0
 20 16  1  0  0  0  0
 22 20  1  0  0  0  0
 22 23  1  0  0  0  0
 24 25  1  6  0  0  0
 24  1  1  0  0  0  0
 24 20  1  0  0  0  0
 26 30  1  6  0  0  0
 26 29  1  0  0  0  0
 27 26  2  0  0  0  0
 28 26  1  0  0  0  0
 29 24  1  0  0  0  0
 30 31  1  0  0  0  0
 31 33  1  0  0  0  0
 31 32  1  0  0  0  0
 34 35  1  1  0  0  0
 34 31  1  0  0  0  0
 36 37  1  0  0  0  0
 36 34  1  0  0  0  0
 37 38  2  0  0  0  0
 39 51  1  0  0  0  0
 39 37  1  0  0  0  0
 40 39  1  0  0  0  0
 41 39  1  0  0  0  0
 42 43  1  0  0  0  0
 42 34  1  0  0  0  0
 42 44  1  0  0  0  0
 45 42  1  0  0  0  0
 46 47  2  0  0  0  0
 46 45  1  0  0  0  0
 48 46  1  0  0  0  0
 49 48  1  0  0  0  0
 50 48  1  0  0  0  0
 51 52  1  0  0  0  0
 51 53  1  0  0  0  0
 54 56  1  0  0  0  0
 54 51  1  0  0  0  0
 55 54  1  0  0  0  0
 57 59  1  0  0  0  0
 57 54  1  0  0  0  0
 57 58  1  0  0  0  0
 60 63  1  0  0  0  0
 60 57  1  0  0  0  0
 61 60  1  0  0  0  0
 62 60  1  0  0  0  0
 63 66  1  0  0  0  0
 64 63  1  0  0  0  0
 65 63  1  0  0  0  0
 66 68  1  0  0  0  0
 67 66  1  0  0  0  0
 69 70  1  0  0  0  0
 69 66  1  0  0  0  0
 71 69  1  0  0  0  0
 72 71  1  0  0  0  0
 73 75  1  0  0  0  0
 73 71  1  0  0  0  0
 74 73  1  0  0  0  0
 76 73  1  0  0  0  0
 76 78  1  0  0  0  0
 77 76  1  0  0  0  0
 79 81  1  0  0  0  0
 79 76  1  0  0  0  0
 80 79  1  0  0  0  0
 82 84  1  0  0  0  0
 82 79  1  0  0  0  0
 83 82  1  0  0  0  0
 85 86  1  0  0  0  0
 85 82  1  0  0  0  0
 87 85  1  0  0  0  0
 88 89  1  0  0  0  0
 88 85  1  0  0  0  0
 90 88  1  0  0  0  0
 91 93  1  0  0  0  0
 91 88  1  0  0  0  0
 92 91  1  0  0  0  0
 94 95  1  0  0  0  0
 94 91  1  0  0  0  0
 96 94  1  0  0  0  0
 97 94  1  0  0  0  0
 98 99  1  0  0  0  0
 98 48  1  0  0  0  0
100 98  1  0  0  0  0
101102  1  0  0  0  0
101 98  1  0  0  0  0
101103  1  0  0  0  0
104101  1  0  0  0  0
105104  1  0  0  0  0
106104  1  0  0  0  0
107108  1  0  0  0  0
107104  1  0  0  0  0
107109  1  0  0  0  0
110111  1  0  0  0  0
110107  1  0  0  0  0
112110  1  0  0  0  0
113114  1  0  0  0  0
113115  1  0  0  0  0
113110  1  0  0  0  0
116113  1  0  0  0  0
117116  1  0  0  0  0
118116  1  0  0  0  0
119121  1  0  0  0  0
119116  1  0  0  0  0
119120  1  0  0  0  0
122119  1  0  0  0  0
123122  1  0  0  0  0
124122  1  0  0  0  0
125122  1  0  0  0  0
125127  1  0  0  0  0
125126  1  0  0  0  0
128125  1  0  0  0  0
129128  1  0  0  0  0
130128  1  0  0  0  0
131133  1  0  0  0  0
131132  1  0  0  0  0
131128  1  0  0  0  0
134131  1  0  0  0  0
135134  1  0  0  0  0
136134  1  0  0  0  0
137138  1  0  0  0  0
137139  1  0  0  0  0
137134  1  0  0  0  0
140137  1  0  0  0  0
M  END
